         TITLE 'IFCSXXXD - SUMMARY TABLE - LINKNAME=IFCST002, ALIASES=IC
               FCST012,IFCS2305'
         SPACE 2
*  LINE MACRO     LINE MACRO     LINE MACRO     LINE MACRO            *
         MACRO
&NAME    LINE  &DATA,&LABEL,&SKIP=
.*                            THIS MACRO ESTABLISHES THE MARGINS OR
.*                                 COLUMN SETTINGS FOR EACH LINE. IT
.*                                 GENERATES NECESSARY CARRIAGE CONTROL
.*                                 ENTRIES. LASTLY IT DETERMINES THE
.*                                 NUMBER OF ENTRIES ASSOCIATED WITH
.*                                 THE PREVIOUS LINE AND STORES THAT #
.*                                 INTO THE APPROPRIATE BYTE.
.*                            &DATA(1) - CHARACTER POSITION TO BEGIN
.*                                 DATA.
.*                            &DATA(2) - # OF SPACES BETWEEN SUCCESSIVE
.*                                 DATA COLUMN STARTING CHARACTERS.
.*                            &LABEL(1) - CHAR. POS. TO BEGIN LABELS.
.*                            &LABEL(2) - # SPACES BETWEEN LINE'S LABEL
.*                                 STARTING CHARACTERS.
.*                            &SKIP= - # OF LINES TO ADVANCE CARRIAGE
.*                                 TO BEGIN NEXT PRINTED LINE.
.*                            NEW ENTRIES ARE GENERATED ONLY WHEN
.*                                 NECESSARY. OMISSION OF ITEMS MEANS
.*                                 THEY HAVE NOT CHANGED SINCE PREVIOUS
.*                                 SETTINGS. A LINE MACRO IS REQUIRED
.*                                 FOR EACH PRINTED LINE. IF NO SETTING
.*                                 CHANGES ARE REQUIRED ALL OPERANDS
.*                                 ARE OMITTED IN WHICH CASE ONLY THE
.*                                 # OF ENTRIES FOR THE PREVIOUS LINE
.*                                 IS COMPUTED. THIS MACRO MUST BE THE
.*                                 FIRST MACRO INSTRUCTION ISSUED FOR
.*                                 THE SUBJECT LINE
         GBLA  &DB,&DT,&LB,&LT,&NRENTS
         GBLA  &LASTCC,&INITIAL
         GBLC  &NRENTSX
         GBLC  &CARRCON
         GBLB  &TEST
         LCLA  &S
&NAME    DS    0C
         AIF   (&INITIAL EQ 0).FIRSTLN
         LINEND
         AGO   .NTFIRST
.FIRSTLN ANOP
&NRENTSX SETC  'N&SYSNDX'
&INITIAL SETA  1
N&SYSNDX EQU   *
.NTFIRST ANOP
         DC    AL1(0)
         AIF   ('&DATA(1)' EQ '').CKDTABS
         AIF   (&DATA(1) EQ &DB).CKDTABS
&DB      SETA  &DATA(1)
         AGO   .AA
.CKDTABS AIF   ('&DATA(2)' EQ '').NCDATA
         AIF   (&DATA(2) EQ &DT).NCDATA
         AGO   .CC
.AA      AIF   ('&DATA(2)' EQ '').BB
         AIF   (&DATA(2) EQ &DT).BB
.CC      ANOP
&DT      SETA  &DATA(2)
.BB      DC    XL2'FFFE'
         DC    FL1'&DB'
         DC    FL1'&DT'
&NRENTS  SETA  &NRENTS+1
.NCDATA  ANOP
         AIF   ('&LABEL(1)' EQ '').CKLTABS
         AIF   (&LABEL(1) EQ &LB).CKLTABS
&LB      SETA  &LABEL(1)
         AGO   .AAA
.CKLTABS AIF   ('&LABEL(2)' EQ '').NCLABEL
         AIF   (&LABEL(2) EQ &LT).NCLABEL
         AGO   .CCC
.AAA     AIF   ('&LABEL(2)' EQ '').BBB
         AIF   (&LABEL(2) EQ &LT).BBB
.CCC     ANOP
&LT      SETA  &LABEL(2)
.BBB     DC    XL2'FFFF'
         DC    FL1'&LB'
         DC    FL1'&LT'
&NRENTS  SETA  &NRENTS+1
.NCLABEL ANOP
         AIF   ('&SKIP' NE '').CONT
         AIF   (&TEST EQ 0).NOCHANG
&S       SETA  &LASTCC
         AGO   .DEFAULT
.CONT    ANOP
         AIF   (&TEST EQ 0).AB
&S       SETA  &SKIP
.DEFAULT ANOP
         ORG   &CARRCON+3
         DC    AL.3(0),AL.2(&S),AL.3(1)
         ORG
&LASTCC  SETA  &S
&TEST    SETB  0
         AGO   .DD
.AB      AIF   (&SKIP EQ &LASTCC).NOCHANG
A&SYSNDX DC    XL2'FFFB'
         DC    AL.3(0),AL.2(&SKIP),AL.3(1)
         DC    FL1'9'
&LASTCC  SETA  &SKIP
&TEST    SETB  1
&CARRCON SETC  'A&SYSNDX'
&NRENTS  SETA  &NRENTS+1
.DD      ANOP
.NOCHANG ANOP
         MEND
         EJECT
         SPACE 2
*  ROUTINE MACRO     ROUTINE MACRO     ROUTINE MACRO     ROUTINE MACRO*
         MACRO
&NAME    ROUTINE &LOGITEM,&RNAME
         GBLC  &DSECT,&CSECT
         GBLC  &ITEM(1000)
         GBLA  &SHIFT(1000),&ITEMNBR
         GBLA  &NRENTS
         LCLA  &ISHIFT,&NDX
.LOOP    ANOP
&NDX     SETA  &NDX+1
         AIF   ('&ITEM(&NDX)' EQ '&LOGITEM').FOUND
         AIF   (&NDX LT &ITEMNBR).LOOP
         MNOTE *,'LOG ITEM NOT DEFINED'
         MEXIT
.FOUND   ANOP
&ISHIFT  SETA  &SHIFT(&NDX)
&NAME    DC    AL.12(&LOGITEM-&DSECT),XL.4'D'
         DC    AL.4(&ISHIFT),AL.12(&RNAME-&CSECT)
&NRENTS  SETA  &NRENTS+1
         MEND
         MACRO
&NAME    LABEL &LABEL1,&LABEL2,&LABEL3,&LABEL4,&LABEL5,&LABEL6,        C
               &LABEL7,&LABEL8
.*                            THIS MACRO ALLOWS UP TO ACHT LABELS TO
.*                                 BE SPECIFIED FOR A GIVEN LINE. THE
.*                                 LABELS SHOULD BE ENCLOSED IN QUOTA-
.*                                 TION MARKS. THE COLUMN AND LINE END
.*                                 CONTROLS WILL BE INSERTED BY THE
.*                                 MACRO. OMITTED OPERANDS MEAN NO
.*                                 LABEL REQUIRED FOR RESPECTIVE
.*                                 COLUMN. THIS MACRO WILL ALSO ALERT
.*                                 THE PROGRAMMER TO EXACTLY WHERE THE
.*                                 TABLE MUST BE BROKEN IF NECESSARY
.*                                 TO AVOID EXCEEDING THE MAXIMUM LIMIT
         GBLC &LABELS(2000)
         GBLC  &LBL(100)
         GBLA  &LBLCTR(100)
         GBLA  &LABELNR
         GBLA  &NRENTS,&LPTR
         LCLC  &MARGIN,&TACK
         LCLC  &TEXT
         LCLA  &OP,&K,&START,&NRCHAR,&REMAIN
&MARGIN  SETC  '*'
         AIF   ('&NAME' EQ '').LOOPOUT
&LPTR    SETA  &LPTR+1
&LBL(&LPTR) SETC '&NAME'
&LBLCTR(&LPTR) SETA &LABELNR+1
.LOOPOUT ANOP
&OP      SETA  &OP+1
&K       SETA  K'&SYSLIST(&OP)
         AIF (&K GE 2).NORM
&K       SETA  2
.NORM    ANOP
&START   SETA  2
         AIF (&OP LT N'&SYSLIST).NOTLAST
&MARGIN  SETC  '$'
.NOTLAST ANOP
&NRCHAR  SETA  8
&TACK    SETC  ''
.LOOPIN  ANOP
&REMAIN  SETA  &K-&START
         AIF (&REMAIN GE 8).MORE
&TACK    SETC  '&MARGIN'
&NRCHAR  SETA  &REMAIN
.MORE    ANOP
&TEXT    SETC  ''
         AIF (&REMAIN EQ 0).ENDTEXT
&TEXT    SETC  '&SYSLIST(&OP)'(&START,&NRCHAR)
.ENDTEXT ANOP
&LABELNR SETA  &LABELNR+1
&LABELS(&LABELNR) SETC '&TEXT'.'&TACK'
&START   SETA  &START+8
         AIF ('&TACK' EQ '').LOOPIN
         AIF ('&TACK' EQ '*').LOOPOUT
         MEND
*  DSGEN MACRO     DSGEN MACRO     DSGEN MACRO     DSGEN MACRO        *
         SPACE 2
         MACRO
&NAME    DSGEN &X1,&X2,&X3,&X4,&X5,&X6,&X7,&X8,&X9,&X10,&X11,&X12,&X13,X
               &X14,&X15,&X16,&X17,&X18,&X19,&X20,&X21,&X22,&X23,&X24, X
               &X25,&X26,&X27,&X28,&X29,&X30,&X31,&X32
.*                            THIS MACRO GENERATES ONE DSECT WORD
.*                                 FORMATTED FOR THE SUBJECT LOG RECORD
.*                                 EACH OPERAND HAS TWO SUB LISTS. THE
.*                                 FIRST IS THE NAME OF THE LOG ITEM
.*                                 WHILE THE SECOND IS THE # OF BITS TO
.*                                 ALLOCATE FOR THIS ITEM. ITEMS MUST
.*                                 BE DEFINED CONTIGUOUSLY WITHOUT GAPS
.*                                 UNUSED BIT GROUPS MUST BE GIVEN
.*                                 DUMMY NAMES. THE NAMES PROVIDED FOR
.*                                 THE LOG ITEMS MAY THEN BE USED IN
.*                                 THE CONVERSION MACRO INSTRUCTIONS.
         GBLC &ITEM(1000)
         GBLA &ITEMNBR,&BITS(1000),&SHIFT(1000)
         LCLC  &SYMBOL
         LCLA  &OP,&COUNT,&BYTE
.LOOP    ANOP
&OP      SETA  &OP+1
&ITEMNBR SETA  &ITEMNBR+1
&SYMBOL  SETC  '&SYSLIST(&OP,1)'
         AIF   ('&SYSLIST(&OP,2)' NE '').OK1
         MNOTE *,'NULL BIT COUNT FIELD'
         MEXIT
.OK1     ANOP
         AIF   ('&SYMBOL' NE '').OK
         MNOTE 'LOG ITEM SYMBOL NOT PROVIDED'
         AGO   .CNT
.OK      ANOP
         AIF   ('&SYMBOL'(1,1) EQ '''').CNT                *TEMP*
&SYMBOL  EQU   *+&BYTE
&ITEM(&ITEMNBR)  SETC '&SYSLIST(&OP,1)'
&BITS(&ITEMNBR) SETA &SYSLIST(&OP,2)
&SHIFT(&ITEMNBR) SETA &COUNT-&BYTE*8
.CNT     ANOP
&COUNT   SETA  &COUNT+&SYSLIST(&OP,2)
&BYTE    SETA  &COUNT/8
         AIF (&OP LT N'&SYSLIST).LOOP
         AIF   (&COUNT NE 32).NOT32
&NAME    DS    4C
         MEXIT
.NOT32   AIF   (&COUNT NE 64).ERR
&NAME    DS    8C
         MEXIT
.ERR     MNOTE '**BIT COUNT FIELDS DO NOT TOTAL 32 OR 64**'
         MEND
         MACRO
         LINEND
.*                            THIS MACRO IS USED ONLY BY THE LINE
.*                                 MACRO TO SET THE NUMBER OF ENTRIES
.*                                 ASSOCIATED WITH EACH LINE.
         GBLA  &NRENTS
         GBLC &NRENTSX
         ORG   &NRENTSX
         DC    FL1'&NRENTS'
         ORG
&NRENTS  SETA  0
B&SYSNDX EQU   *
&NRENTSX SETC  'B&SYSNDX'
         MEND
         MACRO
         LSTART
.*                            THIS MACRO IS ISSUED WHEN THE LABEL AREA
.*                                 OF THE TABLE IS TO BEGIN.
         GBLC &LABELS(2000)
         GBLA  &LABELNR
         GBLC  &LBL(100)
         GBLA  &LBLCTR(100)
         LCLA  &NDX,&CTR
         LINEND
&CTR     SETA  1
.LOOP    ANOP
&NDX     SETA  &NDX+1
         AIF   (&LBLCTR(&CTR) NE &NDX).NOLBL
&LBL(&CTR) DC  C'&LABELS(&NDX)'
&CTR     SETA  &CTR+1
         AGO   .LOOPCTL
.NOLBL   ANOP
         DC    C'&LABELS(&NDX)'
.LOOPCTL AIF   (&NDX LT &LABELNR).LOOP
         MEND
         SPACE 2
*  BIN MACRO     BIN MACRO     BIN MACRO     BIN MACRO     BIN MACRO  *
         SPACE 2
         MACRO
         BIN   &LOGITEM,&SKIP$OR
.*                                 &LOGITEM - NAME OF ITEM IN LOG
.*                                      RECORD DSECT
.*                                 &SKIP$OR - NBR OF SPACES TO SKIP ON
.*                                 MULTIPLE PRINT OR NBR OF SPACES
.*                                      TO BACK UP FROM COLUMN FOR
.*                                      START OF PRINTING. THE LETTER
.*                                      B PRECEEDS THE NUMBER (B5) IF
.*                                      THE LATTER IS DESIRED. OMISSION
.*                                      OF THIS OPERAND FORCES OPTION 2
.*                                      WITH BACKUP SPACING EQUAL TO
.*                                 THE NUMBER OF BITS IN THE ITEM
.*                                 DEFINITION (VIA MACRO 'DSGEN').
.*                            A LIMIT OF 15 BITS IS IMPOSED FOR THE
.*                                 TOTAL NUMBER OF BITS TO PRINT.
         GBLC &ITEM(1000)
         GBLA &ITEMNBR,&BITS(1000),&SHIFT(1000),&NRENTS
         GBLC  &DSECT
         LCLB  &B
         LCLA  &IBITS,&NDX,&ISHIFT,&K
         LCLA  &TEMP,&T
         LCLC  &S
.LOOP    ANOP
&NDX     SETA  &NDX+1
         AIF   ('&ITEM(&NDX)' EQ '&LOGITEM').FOUND
         AIF   (&NDX LT &ITEMNBR).LOOP
         MNOTE *,'YOU BLEW IT'
         ROUTINE DUM,SKIPPER
         MEXIT
.FOUND   ANOP
&ISHIFT  SETA  &SHIFT(&NDX)
&IBITS   SETA  &BITS(&NDX)
&T       SETA  &IBITS-1
&B       SETB  0
         AIF   ('&SKIP$OR' EQ '').BACKUP
&K       SETA  K'&SKIP$OR
&B       SETB  ('&SKIP$OR'(1,1) EQ 'B')
&S       SETC  '&SKIP$OR'(&B+1,&K-&B)
&T       SETA  &S
.BACKUP  ANOP
&NRENTS  SETA  &NRENTS+1
&TEMP    SETA  &ISHIFT
A&SYSNDX DC    AL.12(&LOGITEM-&DSECT),XL.4'&TEMP'
         AIF (&IBITS EQ 1 AND &B EQ 0).OUT
         ORG   A&SYSNDX
&B       SETB  1
         DC    AL.12(&LOGITEM-&DSECT),XL.4'C'
         DC    BL.1'&B',AL.7(&T),AL.4(&IBITS),FL.4'&ISHIFT'
.OUT     ANOP
         MEND
         EJECT
*  HEX MACRO     HEX MACRO     HEX MACRO    HEXN MACRO     HEX MACRO  *
         SPACE 2
         MACRO
         HEX   &LOGITEM,&SKIP$OR,&BYTES
.*                            THIS MACRO FACILITATES GENERATION OF THE
.*                                 TABLE ENTRIES SPECIFYING HEX TYPE
.*                                 CONVERSIONS.
.*                            &LOGITEM - NAME OF DATA ITEM TO BE
.*                                 CONVERTED
.*                            &SKIP$OR - NUMBER OF SPACES TO SKIP ON
.*                                 MULTIPLE PRINT OR NBR OF SPACES TO
.*                                 BACK UP FROM COLUMN FOR START OF
.*                                 PRINTING. THE LETTER B PRECEEDS THE
.*                                 NUMBER (B8) IF THE LATTER OPTION IS
.*                                 DESIRED. OMISSION OF THIS OPERAND
.*                                 FORCES OPTION 2 WITH BACKUP SPACING
.*                                 EQUAL TO THE NUMBER OF BYTES SPECI-
.*                                 FIED BY THE NEXT OPERAND (TWICE THIS
.*                                 NUMBER IF SUFFIX IS EXPLICITLY OR
.*                                 IMPLICITLY B).
.*                            &BYTES - NUMBER OF TOTAL INPUT BYTES TO
.*                                 PROCESS. THIS NUMBER IS SUFFIXED
.*                                 WITH AN L,R, OR B TO STIPULATE
.*                                 PRINTING OF THE LEFT HALF, RIGHT
.*                                 HALF, OR BOTH HALVES OF THE BYTE
.*                                 RESPECTIVELY. OMISSION OF THIS
.*                                 OPERAND DEFAULTS TO B WITH THE NUM-
.*                                 BER OF BYTES EQUAL TO THE ITEM LNGTH
.*                            A NEW ENTRY IS GENERATED ONLY WHEN NECES-
.*                                 SARY. THIS MACRO MUST BE THE FIRST
.*                                 MACRO INSTRUCTION ISSUED FOR THE
.*                                 SUBJECT LINE(S).
         GBLC &ITEM(1000),&DSECT
         GBLA &ITEMNBR,&BITS(1000),&SHIFT(1000),&NRENTS
         LCLB  &B
         LCLA  &IBITS,&NDX,&ISHIFT,&K,&T,&CODE,&BYTESP
         LCLC  &S,&LETTER
.LOOP    ANOP
&NDX     SETA  &NDX+1
         AIF   ('&ITEM(&NDX)' EQ '&LOGITEM').FOUND
         AIF   (&NDX LT &ITEMNBR).LOOP
         MNOTE *,'LOG ITEM NOT DEFINED'
         MEXIT
.FOUND   ANOP
&ISHIFT  SETA  &SHIFT(&NDX)
&IBITS   SETA  &BITS(&NDX)
&CODE    SETA  1
&K       SETA  K'&BYTES
         AIF   (&IBITS-(&IBITS/4)*4 EQ 0).OK
         MNOTE *,'BIT LENGTH SPECIFICATION INCONSISTENT WITH CONTROL'
         MEXIT
.OK      AIF   ('&BYTES' EQ '').USEDEFN
&LETTER  SETC  '&BYTES'(&K,1)
&S       SETC  '&BYTES'(1,&K-1)
&BYTESP  SETA  &S
         AIF   ('&LETTER' EQ 'B').BOTH
         AIF   (&ISHIFT EQ 0 OR &ISHIFT EQ 4).OK2
.ERR     MNOTE *,'DATA NOT ALLIGNED ON HEX OR BYTE BOUNDARY'
         MEXIT
.USEDEFN ANOP
&BYTESP  SETA  &IBITS/8
.BOTH    AIF   (&ISHIFT NE 0).ERR
&CODE    SETA  3
&T       SETA  &BYTESP*2-1
&S       SETC  '&T'
.OK2     AIF   (&ISHIFT EQ 0).L
&CODE    SETA  2
.L       ANOP
&B       SETB  1
         AIF   ('&SKIP$OR' EQ '').BACKUP
&K       SETA  K'&SKIP$OR
&B       SETB  ('&SKIP$OR'(1,1) EQ 'B')
&S       SETC  '&SKIP$OR'(&B+1,&K-&B)
.BACKUP  ANOP
&NRENTS  SETA  &NRENTS+1
         DC    AL.12(&LOGITEM-&DSECT),XL.4'A'
         DC    BL.1'&B',FL.7'&S',FL.4'&BYTESP',FL.4'&CODE'
.OUT     ANOP
         MEND
         MACRO
         SPECIAL  &ROUTINE,&PARAM,&SPACE=
.*                            THIS MACRO GENERATES A SPECIAL ROUTINE
.*                                 ENTRY TO BE PROCESSED BY THE SUM. M.
.*                            &ROUTINE - SYMBOL ON SPECIAL ROUTINE EWT.
.*                            &PARAM - AN 8 BIT BINARY REPRESENTATION
.*                                 TO OCCUPY THE 'MASK' FIELD BUT TO BE
.*                                 INTERPRETED AS AN ARGUMENT OF THE
.*                                 SPECIAL ROUTINE.
.*                            &SPACE - THE NUMBER OF 2BYTE COUNTERS TO
.*                                 ALLOCATE FOR REQUIRED PROCESSING.
         GBLC  &CSECT
         GBLA  &COUNTR
         LCLA  &ADD
         DC    AL1(128)
         DC    BL.8'&PARAM'
         DC    AL2(&ROUTINE-&CSECT)
         DC    AL2(&COUNTR)
&ADD     SETA  1
         AIF   ('&SPACE' EQ '').NORM
&ADD     SETA  &SPACE
.NORM    ANOP
&COUNTR  SETA  &COUNTR+&ADD
         MEND
         MACRO
         SUM   &LOGITEM,&MASK
.*                            THIS MACRO GENERATES A NORMAL EDIT ENTRY
.*                                 FOR PROCESSING BY THE SUMMARY MODULE
.*                            &LOGITEM - NAME OF DATA ITEM TO BE SUMMED
.*                            &MASK - BYTE MASK FOR BITS TO BE TESTED.
.*                                 THIS OPERAND SHOULD BE OMITTED FOR
.*                                 SINGLE BIT ITEMS IN WHICH CASE THE
.*                                 MASK WILL BE SET ACCORDING TO THE
.*                                 OFF BYTE BIT DISPLACEMENT OF THE
.*                                ITEM AS DEFINED BY THE MACRO 'DSGEN'
         GBLA  &COUNTR,&ITEMNBR,&BITS(1000),&SHIFT(1000)
         GBLC  &ITEM(1000),&DSECT
         LCLA  &IBITS,&NDX,&ISHIFT,&M,&BITNBR
.LOOP    ANOP
&NDX     SETA  &NDX+1
         AIF   ('&ITEM(&NDX)' EQ '&LOGITEM').FOUND
         AIF   (&NDX LT &ITEMNBR).LOOP
         MNOTE *,'LOGITEM NOT FOUND'
         MEXIT
.FOUND   ANOP
         DC    AL1(0)
&ISHIFT  SETA  &SHIFT(&NDX)
&IBITS   SETA  &BITS(&NDX)
         AIF   ('&MASK' EQ '').FORM
         DC    B'&MASK'
         AGO   .ITEM
.FORM    ANOP
&BITNBR  SETA  &ISHIFT-7
&BITNBR  SETA  0-&BITNBR
&M       SETA  1
.LOOP2   ANOP
         AIF   (&BITNBR EQ 0).GOTIT
&M       SETA  &M*2
&BITNBR  SETA  &BITNBR-1
         AGO   .LOOP2
.GOTIT   ANOP
         DC    AL1(&M)
.ITEM    DC    AL2(&LOGITEM-&DSECT)
         DC    AL2(&COUNTR)
&COUNTR  SETA  &COUNTR+1
         MEND
         GBLC  &DSECT,&CSECT
&DSECT   SETC  'S0002'
&CSECT   SETC  'IFCSXXXD'
***********************************************************************
*                                                                     *
*              THIS ENTIRE MODULE IS IN SUPPORT OF  S20201            *
*                                                                     *
***********************************************************************
IFCSXXXD CSECT
S0002    DSECT
         DSGEN (CLASRC,8),(SYSREL,8),(SWITCH1,8),(SWITCH2,8)
         DSGEN (SPARE1,32)
         DSGEN (DATE,32)
         DSGEN (HOUR,32)
         DSGEN (SPARE2,8),(CPUSERL,24)
         DSGEN (CPUID,16),(SPARE3,16)
         DSGEN (JOBID1,32)
         DSGEN (JOBID2,32)
         DSGEN (FCCWCC,8),(FCCWDA,24)
         DSGEN (FCCWFL,8),(FCCW,8),(FCCWCT,16)
         DSGEN (CSWUS1,8),(CSWUS2,24)
         DSGEN (CSWUS3,8),(CSWUS4,8),(CSWUS5,16)
         DSGEN (ECSW,32)
         DSGEN (DEVTYP1,16),(DEVTYP2,16)
         DSGEN (SPARE4,8),(CUA,24)
         DSGEN (IORET,24),(SBCNT,8)
         DSGEN (VOLLAB1,8),(VOLLAB2,16),(VOLLAB3,8)
         DSGEN (VOLLAB4,8),(VOLLAB5,8),(SPARE5,16)
         DSGEN (LSKAD1,8),(LSKAD2,16),(LSKAD3,8)
         DSGEN (LSKAD4,8),(LSKAD5,16),(LSKAD6,8)
         DSGEN (AHA1,32)
         DSGEN (AHA2,16),(SPARE6,16)
         DSGEN (SPARE7,16),(SPARE8,16)
         DS    6C
         DSGEN (SNB00,1),(SNB01,1),(SNB02,1),(SNB03,1),(SNB04,1),      C
               (SNB05,1),(SNB06,1),(SNB07,1),(SNB10,1),(SNB11,1),      C
               (SNB12,1),(SNB13,1),(SNB14,1),(SNB15,1),(SNB16,1),      C
               (SNB17,1),(SNB20,1),(SNB21,1),(SNB22,1),(SNB23,1),      C
               (SNB24,1),(SNB25,1),(SNB26,1),(SNB27,1),(SNB30,1),      C
               (SNB31,1),(SNB32,1),(SNB33,1),(SNB34,1),(SNB35,1),      C
               (SNB36,1),(SNB37,1)
         DSGEN (SNB40,1),(SNB41,1),(SNB42,1),(SNB43,1),(SNB44,1),      C
               (SNB45,1),(SNB46,1),(SNB47,1),(SNB50,1),(SNB51,1),      C
               (SNB52,1),(SNB53,1),(SNB54,1),(SNB55,1),(SNB56,1),      C
               (SNB57,1),(SNB60,1),(SNB61,1),(SNB62,1),(SNB63,1),      C
               (SNB64,1),(SNB65,1),(SNB66,1),(SNB67,1),(SNB70,1),      C
               (SNB71,1),(SNB72,1),(SNB73,1),(SNB74,1),(SNB75,1),      C
               (SNB76,1),(SNB77,1)
         DSGEN (SNB80,1),(SNB81,1),(SNB82,1),(SNB83,1),(SNB84,1),      C
               (SNB85,1),(SNB86,1),(SNB87,1),(SNB90,1),(SNB91,1),      C
               (SNB92,1),(SNB93,1),(SNB94,1),(SNB95,1),(SNB96,1),      C
               (SNB97,1),(SNB100,1),(SNB101,1),(SNB102,1),(SNB103,1),  C
               (SNB104,1),(SNB105,1),(SNB106,1),(SNB107,1),(SNB110,1), C
               (SNB111,1),(SNB112,1),(SNB113,1),(SNB114,1),(SNB115,1), C
               (SNB116,1),(SNB117,1)
         DSGEN (SNB120,1),(SNB121,1),(SNB122,1),(SNB123,1),(SNB124,1), C
               (SNB125,1),(SNB126,1),(SNB127,1),(SNB130,1),(SNB131,1), C
               (SNB132,1),(SNB133,1),(SNB134,1),(SNB135,1),(SNB136,1), C
               (SNB137,1),(SNB140,1),(SNB141,1),(SNB142,1),(SNB143,1), C
               (SNB144,1),(SNB145,1),(SNB146,1),(SNB147,1),(SNB150,1), C
               (SNB151,1),(SNB152,1),(SNB153,1),(SNB154,1),(SNB155,1), C
               (SNB156,1),(SNB157,1)
         DSGEN (SNB160,1),(SNB161,1),(SNB162,1),(SNB163,1),(SNB164,1), C
               (SNB165,1),(SNB166,1),(SNB167,1),(SNB170,1),(SNB171,1), C
               (SNB172,1),(SNB173,1),(SNB174,1),(SNB175,1),(SNB176,1), C
               (SNB177,1),(SNB180,1),(SNB181,1),(SNB182,1),(SNB183,1), C
               (SNB184,1),(SNB185,1),(SNB186,1),(SNB187,1),(SNB190,1), C
               (SNB191,1),(SNB192,1),(SNB193,1),(SNB194,1),(SNB195,1), C
               (SNB196,1),(SNB197,1)
         DSGEN (SNB200,1),(SNB201,1),(SNB202,1),(SNB203,1),(SNB204,1), C
               (SNB205,1),(SNB206,1),(SNB207,1),(SNB210,1),(SNB211,1), C
               (SNB212,1),(SNB213,1),(SNB214,1),(SNB215,1),(SNB216,1), C
               (SNB217,1),(SNB220,1),(SNB221,1),(SNB222,1),(SNB223,1), C
               (SNB224,1),(SNB225,1),(SNB226,1),(SNB227,1),(SNB230,1), C
               (SNB231,1),(SNB232,1),(SNB233,1),(SNB234,1),(SNB235,1), C
               (SNB236,1),(SNB237,1)
*
MYDSECT  DSECT
MPLFSCK  DS    1H                       MPL FILE SEEK CHECKS 0 AND 1
MPLFRCK  DS    1H                       MPL FILE READ CHECKS 0 AND 1
CTLUSR   DS    1H                       CTL UNIT SET RESET CTR 0 AND 1
MODEL    DS    1H                       MODEL NUMBER
DATACKS  DS    1H                       DATA CHECKS MODULE 0
EQUIPCK  DS    1H                       EQUIPMENT CHECKS MODULE 0
BUSOUTP  DS    1H                       BUSOUT PARITY CTR MODULE 0
ORCHANA  DS    1H                       OVERRUNS CHANNEL A MODULE 0
ORCHANB  DS    1H                       OVERRUNS CHANNEL B MODULE 0
MISSADM  DS    1H                       MISSING ADDR MARK MODULE 0
CORR     DS    1H
PERM     DS    1H
CURETRY  DS    1H                       CTL UNIT RETRIES MODULE 0
RETRYIN  DS    1H
BIG      DS    2H                       NO. OF GIGABYTES MODULE 0
TABLE    DS    46H                      DATA CHECK TABLE MODULE 0
TABADDR  DS    2H                       ADDR OF MODULE 0 TABLE ENTRY
MOD1OUX  DS    4H
DATACKS1 DS    1H                       DATA CHECKS MODULE 1
EQUIPCK1 DS    1H                       EQUIPMENT CHECKS MODULE 1
BUSOUTP1 DS    1H                       BUSOUT PARITY CTR MODULE 1
ORCHANA1 DS    1H                       OVERRUNS CHANNEL A MODULE 1
ORCHANB1 DS    1H                       OVERRUNS CHANNEL B MODULE 1
MISSADM1 DS    1H                       MISSING ADDR MARK MODULE 1
CORR1    DS    1H
PERM1    DS    1H
CURETRY1 DS    1H                       CTL UNIT RETIRES MODULE 1
RETRYIN1 DS    1H
BIG1     DS    2H                       NO. OF GIGABYTES MODULE 1
TABLE1   DS    46H                      DATA CHECK TABLE MODULE 1
TABADDR1 DS    2H                       ADDR FOR MODULE 1 TABLE ENTRY
TABDSECT DSECT
TABYTE0  DS    CL1
TABYTE1  DS    CL1
TABYTE2  DS    CL1
TABYTE3  DS    CL1
SPDSECT  DSECT
BYTE0    DS    CL1
BYTE1    DS    CL1
BYTE2    DS    CL1
BYTE3    DS    CL1
BYTE4    DS    CL1
BYTE5    DS    CL1
BYTE6    DS    CL1
BYTE7    DS    CL1
IFCSXXXD CSECT
         USING S0002,R2
         USING *,R9
         USING SPDSECT,R6
         USING MYDSECT,R5
         USING TABDSECT,R4
         DC    A(ENTRIES)
         DC    A(PEDIT)
REG8     DC    F'0'
SCSIZE   DC    H'280'
R0       EQU   0
R1       EQU   1
R2       EQU   2
R3       EQU   3
R4       EQU   4
R5       EQU   5
R6       EQU   6
R7       EQU   7
R8       EQU   8
R9       EQU   9
R10      EQU   10
R11      EQU   11
R12      EQU   12
R13      EQU   13
R14      EQU   14
R15      EQU   15
L0       EQU   0
L1       EQU   1
L2       EQU   2
L3       EQU   3
L4       EQU   4
L5       EQU   5
L6       EQU   6
L7       EQU   7
L8       EQU   8
L10      EQU   10
L12      EQU   12
L13      EQU   13
L15      EQU   15
L18      EQU   18
L20      EQU   20
L25      EQU   25
L26      EQU   26
L28      EQU   28
L29      EQU   29
L30      EQU   30
L31      EQU   31
L32      EQU   32
L36      EQU   36
L41      EQU   41
L46      EQU   46
L52      EQU    52
L53      EQU   53
L9       EQU   9                                               @Z427VLS
L61      EQU   61                                              @Z427VLS
L64      EQU   64
L78      EQU   78
L82      EQU   82
L92      EQU   92
L106     EQU   106
L128     EQU   128
L136     EQU   136
L168     EQU   168
L172     EQU    172
L266     EQU   266
H00      EQU   X'00'
H01      EQU   X'01'
H02      EQU   X'02'
H03      EQU   X'03'
H04      EQU   X'04'
H07      EQU   X'07'
H08      EQU   X'08'
H0C      EQU   X'0C'
H0F      EQU   X'0F'
H10      EQU   X'10'
H1F      EQU   X'1F'
H20      EQU   X'20'
H30      EQU   X'30'
H40      EQU   X'40'
H60      EQU   X'60'
H80      EQU   X'80'
HC0      EQU   X'C0'
HE0      EQU   X'E0'
HFF      EQU   X'FF'
ONE      DC    C'1'
TWO      DC    C'2'
PERMCORR DC    C'0'
HEX00    DC    F'0'
ZEROA    DC    H'0'
MOVEIT   DS    F
XSAVE    DS    6F
XSAVEA   DC    F'0'
EOR      DC    F'0'
OBR0     DC    F'0'
FORTY    DC    H'40'
TWENTY   DC    H'20'
IF0      DC    F'0'                     IF MODULE 0 DSECT NEEDED
*
*        SPECIAL ROUTINES
*
XDATE1   STM   R4,R8,XSAVE              SAVE REGS
         LA    R5,L266(R3)              POINT TO MPL FILE SEEK CHECKS
         ST    R5,IF0                   STORE 5 IF MODUE 0 DEFAULT
         CLC   DATE(L4),HEX00           IS DATE ZERO
         BE    RECORDCK                 BR-ZERO
         CLC   L0(L4,R3),HEX00          IS LOW DATE ZERO
         BNE   XDATE2                   BR-NO
         MVC      L0(L4,R3),DATE                 MOVE IN DATE
XDATE2   CLC   DATE(L4),L0(R3)          CHECK FOR LOW DATE
         BL    SAVELOW                  LOWER SAVE IT
         CLC   DATE(L4),L4(R3)          CHECK FOR HI
         BNH   RECORDCK                 BR-NOT HI
SAVEHI   MVC   L4(L4,R3),DATE           MOVE HI DATE
         B     RECORDCK                 SEE WHAT TYPE RECORD
SAVELOW  MVC   L0(L4,R3),DATE           MOVE LOW DATE
         B     RECORDCK                 SEE WHAT TYPE RECORD
RECORDCK TM    CLASRC,H30               SEE IF IT IS AN OBR RECORD
         BO    OBRCKS                   BRANCH IF IT IS TO CHECK OBR
MODCHK   TM    SPARE1,H10             SEE IF MOD-1
         BO    MOD1                     BR-YES
         MVC   MODEL(L1),TWO            MOVE IN TWO
         B     AROUND                   BR-AROUND
MOD1     MVC   MODEL(L1),ONE            MOVE IN ONE
AROUND   LA    R6,L26(R2)               GET TO START OF RECORD SENSE
         LA     R7,L128(R6)             GET ADDR OF END OF RECORD
         ST    R7,EOR
AGAIN    L     R5,IF0                   LOAD AS IF MODULE 0
         TM    BYTE0,HE0                TEST FIRST THREE BITS
         BO    UDC                      BR IF 111
         TM    BYTE0,HC0                TEST FIRST THREE BITS
         BO    CDC                      BR IF 110
         TM    BYTE0,H60                TEST FIRST THREE BITS
         BO    MFC                      BR IF 011
         TM    BYTE0,H80                TEST FIRST THREE BITS
         BO    UOC                      BR IF 100
         TM    BYTE0,H20                TEST FIRST THREE BITS
         BO    CSR                      BR IF 001
TEST     LA    R6,L8(R6)                BUMP R4 UP 8 TO NEW ENTRY
         CL    R6,EOR                   COMPARE IT WITH END OF RECORD
         BL    AGAIN                    GO BACK IF LESS
         LA    R8,QUIT-L6
         ST    R8,REG8
         LM    R4,R8,XSAVE              RESTORE REGS IF NOT
         BR    R14                      GO BACK
MFC      SR    R7,R7                    CLEAR REG 7
         IC    R7,BYTE1                 GET READS AND SEEKS
         ST    R6,XSAVEA                STORE R6 TEMP.
         SR    R6,R6
         SLDL  R6,L28                   PUT READS IN 6
         SRL   R7,L28                   PUT SEEKS IN 7
         AH    R6,MPLFRCK               ADD TOTAL READ CHECKS
         AH    R7,MPLFSCK               ADD TOTAL SEEK CHECKS
         STH   R6,MPLFRCK               STORE TOTAL READ CHECKS
         STH   R7,MPLFSCK               STORE TOTAL SEEK&CHECKS
         L     R6,XSAVEA                RELOAD R6
         B     TEST                     GO TEST ANOTHER BLOCK
CSR      LA    R8,L1                    GET ONE IN R6
         AH    R8,CTLUSR                ADD TOTAL CTLUSR
         STH   R8,CTLUSR                STORE TOTAL RESET COUNT
         B     TEST                     GO TEST ANOTHER BLOCK
UOC      TM    BYTE0,H08                SEE IF MODULE 0
         BZ    MOD0                     BRANCH YES
         LA    R5,MOD1OUX               UPDATE PTR IF ON
MOD0     SR    R8,R8                    CLEAR REG 8
         IC    R8,BYTE1                 GET OVERRUN CHANNEL A
         AH    R8,ORCHANA               ADD TOTAL OVERRUN A
         STH   R8,ORCHANA               STORE TOTAL
         SR    R8,R8                    CLEAR REG 6
         IC    R8,BYTE2                 GET OVERRUN CHANNEL B
         AH    R8,ORCHANB               ADD TOTAL OVERRUN B
         STH   R8,ORCHANB               STORE TOTAL
         SR    R8,R8                    CLEAR REG6
         IC    R8,BYTE3                 GET MISSING AM
         AH    R8,MISSADM               ADD TOTAL MISSING AM'S