         TITLE 'IFCSXXX0 - SUM TABLE - LINKNAME=IFCS2701, ALIASES=IFCS2C
               702,IFCS2703'
         SPACE 2
*  LINE MACRO     LINE MACRO     LINE MACRO     LINE MACRO            *
         MACRO
&NAME    LINE  &DATA,&LABEL,&SKIP=
.*                            THIS MACRO ESTABLISHES THE MARGINS OR
.*                                 COLUMN SETTINGS FOR EACH LINE. IT
.*                                 GENERATES NECESSARY CARRIAGE CONTROL
.*                                 ENTRIES. LASTLY IT DETERMINES THE
.*                                 NUMBER OF ENTRIES ASSOCIATED WITH
.*                                 THE PREVIOUS LINE AND STORES THAT #
.*                                 INTO THE APPROPRIATE BYTE.
.*                                 &DATA(1) - CHARACTER POSITION TO
.*                                 BEGIN DATA.
.*
.*                                 &DATA(2) - # OF SPACES BETWEEN
.*                                 SUCCESSIVE DATA COLUMN STARTING
.*                                 CHARACTERS.
.*
.*                                 &LABEL(1) - CHARACTER POSITION
.*                                 TO BEGIN LABELS.
.*
.*                                 &LABEL(2) - # OF SPACES BETWEEN
.*                                 LINE'S LABEL STARTING CHARACTERS.
.*
.*                                 &SKIP= - # OF LINES TO ADVANCE
.*                                 CARRIAGE TO BEGIN NEXT PRINTED LINE.
.*
.*                                 NEW ENTRIES ARE GENERATED ONLY WHEN
.*                                 NECESSARY. OMISSION OF ITEMS MEANS
.*                                 THEY HAVE NOT CHANGED SINCE PREVIOUS
.*                                 SETTINGS. A LINE MACRO IS REQUIRED
.*                                 FOR EACH PRINTED LINE. IF NO SETTING
.*                                 CHANGES ARE REQUIRED ALL OPERANDS
.*                                 ARE OMITTED IN WHICH CASE ONLY THE
.*                                 # OF ENTRIES FOR THE PREVIOUS LINE
.*                                 FIRST MACRO INSTRUCTION ISSUED FOR
.*                                 THE SUBJECT LINE.
         GBLA  &DB,&DT,&LB,&LT,&NRENTS
         GBLA  &LASTCC,&INITIAL
         GBLC  &NRENTSX
         GBLC  &CARRCON
         GBLB  &TEST
         LCLA  &S
&NAME    DS    0C
         AIF   (&INITIAL EQ 0).FIRSTLN
         LINEND
         AGO   .NTFIRST
.FIRSTLN ANOP
&NRENTSX SETC  'N&SYSNDX'
&INITIAL SETA  1
&LASTCC  SETA  1
N&SYSNDX EQU   *
.NTFIRST ANOP
         DC    AL1(0)
         AIF   ('&DATA(1)' EQ '').CKDTABS
         AIF   ('&DATA'(1,1) NE '(').SLABEL
         AIF   (&DATA(1) EQ &DB).CKDTABS
&DB      SETA  &DATA(1)
         AGO   .AA
.CKDTABS AIF   ('&DATA(2)' EQ '').NCDATA
         AIF   (&DATA(2) EQ &DT).NCDATA
         AGO   .CC
.AA      AIF   ('&DATA(2)' EQ '').BB
         AIF   (&DATA(2) EQ &DT).BB
.CC      ANOP
&DT      SETA  &DATA(2)
.BB      DC    XL2'FFFE'
         DC    FL1'&DB'
         DC    FL1'&DT'
&NRENTS  SETA  &NRENTS+1
.NCDATA  ANOP
         AIF   ('&LABEL(1)' EQ '').CKLTABS
         AIF   ('&LABEL'(1,1) NE '(').SLABEL
         AIF   (&LABEL(1) EQ &LB).CKLTABS
&LB      SETA  &LABEL(1)
         AGO   .AAA
.CKLTABS AIF   ('&LABEL(2)' EQ '').NCLABEL
         AIF   (&LABEL(2) EQ &LT).NCLABEL
         AGO   .CCC
.AAA     AIF   ('&LABEL(2)' EQ '').BBB
         AIF   (&LABEL(2) EQ &LT).BBB
.CCC     ANOP
&LT      SETA  &LABEL(2)
.BBB     DC    XL2'FFFF'
         DC    FL1'&LB'
         DC    FL1'&LT'
&NRENTS  SETA  &NRENTS+1
.NCLABEL ANOP
         AIF   ('&SKIP' EQ 'E').EJECT
         AIF   ('&SKIP' EQ '').TESTOFF
.CONT    ANOP
         AIF   (&TEST EQ 0).AB
         AIF   (&SKIP EQ &LASTCC).TESTOFF
&S       SETA  &SKIP
         ORG   &CARRCON+3
         DC    AL.3(0),AL.2(&S),AL.3(1)
         ORG
&LASTCC  SETA  &S
.SLABEL  ANOP
.TESTOFF ANOP
&TEST    SETB  0
         AGO   .DD
.EJECT   DC    XL2'FFFB'
&NRENTS  SETA  &NRENTS+1
         DC    X'8B'              SKIP TO CHANNEL 1
         DC    AL.3(0),AL.2(&LASTCC),AL.3(1)
&TEST    SETB  1
         AGO   .DD
.AB      AIF   (&SKIP EQ &LASTCC).NOCHANG
A&SYSNDX DC    XL2'FFFB'
         DC    AL.3(0),AL.2(&SKIP),AL.3(1)
         DC    AL.3(0),AL.2(&SKIP),AL.3(1)
&LASTCC  SETA  &SKIP
&TEST    SETB  1
&CARRCON SETC  'A&SYSNDX'
&NRENTS  SETA  &NRENTS+1
.DD      ANOP
.NOCHANG ANOP
         MEND
         EJECT
         SPACE 2
*  ROUTINE MACRO     ROUTINE MACRO     ROUTINE MACRO     ROUTINE MACRO*
         MACRO
&NAME    ROUTINE &LOGITEM,&RNAME
         GBLC  &DSECT,&CSECT
         GBLC  &ITEM(1000)
         GBLA  &SHIFT(1000),&ITEMNBR
         GBLA  &NRENTS
         LCLA  &ISHIFT,&NDX
.LOOP    ANOP
&NDX     SETA  &NDX+1
         AIF   ('&ITEM(&NDX)' EQ '&LOGITEM').FOUND
         AIF   (&NDX LT &ITEMNBR).LOOP
         MNOTE *,'LOG ITEM NOT DEFINED'
         MEXIT
.FOUND   ANOP
&ISHIFT  SETA  &SHIFT(&NDX)
&NAME    DC    AL.12(&LOGITEM-&DSECT),XL.4'D'
         DC    AL.4(&ISHIFT),AL.12(&RNAME-&CSECT)
&NRENTS  SETA  &NRENTS+1
         MEND
*  DSGEN MACRO     DSGEN MACRO     DSGEN MACRO     DSGEN MACRO        *
         SPACE 2
         MACRO
&NAME    DSGEN &X1,&X2,&X3,&X4,&X5,&X6,&X7,&X8,&X9,&X10,&X11,&X12,&X13,X
               &X14,&X15,&X16,&X17,&X18,&X19,&X20,&X21,&X22,&X23,&X24, X
               &X25,&X26,&X27,&X28,&X29,&X30,&X31,&X32
.*                            THIS MACRO GENERATES ONE DSECT WORD
.*                                 FORMATTED FOR THE SUBJECT LOG RECORD
.*                                 EACH OPERAND HAS TWO SUB LISTS. THE
.*                                 FIRST IS THE NAME OF THE LOG ITEM
.*                                 WHILE THE SECOND IS THE # OF BITS TO
.*                                 ALLOCATE FOR THIS ITEM. ITEMS MUST
.*                                 BE DEFINED CONTIGUOUSLY WITHOUT GAPS
.*                                 UNUSED BIT GROUPS MUST BE GIVEN
.*                                 DUMMY NAMES. THE NAMES PROVIDED FOR
.*                                 THE LOG ITEMS MAY THEN BE USED IN
.*                                 THE CONVERSION MACRO INSTRUCTIONS.
         GBLC &ITEM(1000)
         GBLA &ITEMNBR,&BITS(1000),&SHIFT(1000)
         LCLC  &SYMBOL
         LCLA  &OP,&COUNT,&BYTE
.LOOP    ANOP
&OP      SETA  &OP+1
&ITEMNBR SETA  &ITEMNBR+1
&SYMBOL  SETC  '&SYSLIST(&OP,1)'
         AIF   ('&SYSLIST(&OP,2)' NE '').OK1
         MNOTE *,'NULL BIT COUNT FIELD'
         MEXIT
.OK1     ANOP
         AIF   ('&SYMBOL' NE '').OK
         MNOTE 'LOG ITEM SYMBOL NOT PROVIDED'
         AGO   .CNT
.OK      ANOP
         AIF   ('&SYMBOL'(1,1) EQ '''').CNT                *TEMP*
&SYMBOL  EQU   *+&BYTE
&ITEM(&ITEMNBR)  SETC '&SYSLIST(&OP,1)'
&BITS(&ITEMNBR) SETA &SYSLIST(&OP,2)
&SHIFT(&ITEMNBR) SETA &COUNT-&BYTE*8
.CNT     ANOP
&COUNT   SETA  &COUNT+&SYSLIST(&OP,2)
&BYTE    SETA  &COUNT/8
         AIF (&OP LT N'&SYSLIST).LOOP
         AIF   (&COUNT NE 32).NOT32
&NAME    DS    4C
         MEXIT
.NOT32   AIF   (&COUNT NE 64).ERR
&NAME    DS    8C
         MEXIT
.ERR     MNOTE '**BIT COUNT FIELDS DO NOT TOTAL 32 OR 64**'
         MEND
         MACRO
         LINEND
.*                            THIS MACRO IS USED ONLY BY THE LINE
.*                                 MACRO TO SET THE NUMBER OF ENTRIES
.*                                 ASSOCIATED WITH EACH LINE.
         GBLA  &NRENTS
         GBLC &NRENTSX
         ORG   &NRENTSX
         DC    FL1'&NRENTS'
         ORG
&NRENTS  SETA  0
B&SYSNDX EQU   *
&NRENTSX SETC  'B&SYSNDX'
         MEND
         SPACE 2
         EJECT
*  LABEL MACRO     LABEL MACRO     LABEL MACRO     LABEL MACRO        *
         SPACE 2
         MACRO
&NAME    LABEL &LABEL1,&LABEL2,&LABEL3,&LABEL4,&LABEL5,&LABEL6,        C
               &LABEL7,&LABEL8
.*                            THIS MACRO ALLOWS UP TO ACHT LABELS TO
.*                                 BE SPECIFIED FOR A GIVEN LINE. THE
.*                                 LABELS SHOULD BE ENCLOSED IN QUOTA-
.*                                 TION MARKS. THE COLUMN AND LINE END
.*                                 CONTROLS WILL BE INSERTED BY THE
.*                                 MACRO. OMITTED OPERANDS MEAN NO
.*                                 LABEL REQUIRED FOR RESPECTIVE
.*                                 COLUMN. THIS MACRO WILL ALSO ALERT
.*                                 THE PROGRAMMER TO EXACTLY WHERE THE
.*                                 TABLE MUST BE BROKEN IF NECESSARY
.*                                 TO AVOID EXCEEDING THE MAXIMUM LIMIT
         GBLC &LABELS(2000)
         GBLC  &LBL(100)
         GBLA  &LBLCTR(100)
         GBLA  &LABELNR
         GBLA  &NRENTS,&LPTR
         LCLC  &MARGIN,&TACK
         LCLC  &TEXT
         LCLA  &OP,&K,&START,&NRCHAR,&REMAIN
&MARGIN  SETC  '*'
         AIF   ('&NAME' EQ '').LOOPOUT
&LPTR    SETA  &LPTR+1
&LBL(&LPTR) SETC '&NAME'
&LBLCTR(&LPTR) SETA &LABELNR+1
.LOOPOUT ANOP
&OP      SETA  &OP+1
&K       SETA  K'&SYSLIST(&OP)
         AIF (&K GE 2).NORM
&K       SETA  2
.NORM    ANOP
&START   SETA  2
         AIF (&OP LT N'&SYSLIST).NOTLAST
&MARGIN  SETC  '$'
.NOTLAST ANOP
&NRCHAR  SETA  8
&TACK    SETC  ''
.LOOPIN  ANOP
&REMAIN  SETA  &K-&START
         AIF (&REMAIN GE 8).MORE
&TACK    SETC  '&MARGIN'
&NRCHAR  SETA  &REMAIN
.MORE    ANOP
&TEXT    SETC  ''
         AIF (&REMAIN EQ 0).ENDTEXT
&TEXT    SETC  '&SYSLIST(&OP)'(&START,&NRCHAR)
.ENDTEXT ANOP
&LABELNR SETA  &LABELNR+1
&LABELS(&LABELNR) SETC '&TEXT'.'&TACK'
&START   SETA  &START+8
         AIF ('&TACK' EQ '').LOOPIN
         AIF ('&TACK' EQ '*').LOOPOUT
         MEND
         SPACE 2
         MACRO
         LSTART
.*                            THIS MACRO IS ISSUED WHEN THE LABEL AREA
.*                                 OF THE TABLE IS TO BEGIN.
         GBLC &LABELS(2000)
         GBLA  &LABELNR
         GBLC  &LBL(100)
         GBLA  &LBLCTR(100)
         LCLA  &NDX,&CTR
         LINEND
&CTR     SETA  1
.LOOP    ANOP
&NDX     SETA  &NDX+1
         AIF   (&LBLCTR(&CTR) NE &NDX).NOLBL
&LBL(&CTR) DC  C'&LABELS(&NDX)'
&CTR     SETA  &CTR+1
         AGO   .LOOPCTL
.NOLBL   ANOP
         DC    C'&LABELS(&NDX)'
.LOOPCTL AIF   (&NDX LT &LABELNR).LOOP
         MEND
         SPACE 2
*  BIN MACRO     BIN MACRO     BIN MACRO     BIN MACRO     BIN MACRO  *
         SPACE 2
         MACRO
         BIN   &LOGITEM,&SKIP$OR
.*                                 &LOGITEM - NAME OF ITEM IN LOG
.*                                      RECORD DSECT
.*                                 &SKIP$OR - NBR OF SPACES TO SKIP ON
.*                                 MULTIPLE PRINT OR NBR OF SPACES
.*                                      TO BACK UP FROM COLUMN FOR
.*                                      START OF PRINTING. THE LETTER
.*                                      B PRECEEDS THE NUMBER (B5) IF
.*                                      THE LATTER IS DESIRED. OMISSION
.*                                      OF THIS OPERAND FORCES OPTION 2
.*                                      WITH BACKUP SPACING EQUAL TO
.*                                 THE NUMBER OF BITS IN THE ITEM
.*                                 DEFINITION (VIA MACRO 'DSGEN').
.*                            A LIMIT OF 15 BITS IS IMPOSED FOR THE
.*                                 TOTAL NUMBER OF BITS TO PRINT.
         GBLC &ITEM(1000)
         GBLA &ITEMNBR,&BITS(1000),&SHIFT(1000),&NRENTS
         GBLC  &DSECT
         LCLB  &B
         LCLA  &IBITS,&NDX,&ISHIFT,&K
         LCLA  &TEMP,&T
         LCLC  &S
.LOOP    ANOP
&NDX     SETA  &NDX+1
         AIF   ('&ITEM(&NDX)' EQ '&LOGITEM').FOUND
         AIF   (&NDX LT &ITEMNBR).LOOP
         MNOTE *,'YOU BLEW IT'
         ROUTINE DUM,SKIPPER
         MEXIT
.FOUND   ANOP
&ISHIFT  SETA  &SHIFT(&NDX)
&IBITS   SETA  &BITS(&NDX)
&T       SETA  &IBITS-1
&B       SETB  0
         AIF   ('&SKIP$OR' EQ '').BACKUP
&K       SETA  K'&SKIP$OR
&B       SETB  ('&SKIP$OR'(1,1) EQ 'B')
&S       SETC  '&SKIP$OR'(&B+1,&K-&B)
&T       SETA  &S
.BACKUP  ANOP
&NRENTS  SETA  &NRENTS+1
&TEMP    SETA  &ISHIFT
A&SYSNDX DC    AL.12(&LOGITEM-&DSECT),XL.4'&TEMP'
         AIF (&IBITS EQ 1 AND &B EQ 0).OUT
         ORG   A&SYSNDX
&B       SETB  1
         DC    AL.12(&LOGITEM-&DSECT),XL.4'C'
         DC    BL.1'&B',AL.7(&T),AL.4(&IBITS),FL.4'&ISHIFT'
.OUT     ANOP
         MEND
         EJECT
*  HEX MACRO     HEX MACRO     HEX MACRO    HEXN MACRO     HEX MACRO  *
         SPACE 2
         MACRO
         HEX   &LOGITEM,&SKIP$OR,&BYTES
.*                            THIS MACRO FACILITATES GENERATION OF THE
.*                                 TABLE ENTRIES SPECIFYING HEX TYPE
.*                                 CONVERSIONS.
.*                            &LOGITEM - NAME OF DATA ITEM TO BE
.*                                 CONVERTED
.*                            &SKIP$OR - NUMBER OF SPACES TO SKIP ON
.*                                 MULTIPLE PRINT OR NBR OF SPACES TO
.*                                 BACK UP FROM COLUMN FOR START OF
.*                                 PRINTING. THE LETTER B PRECEEDS THE
.*                                 NUMBER (B8) IF THE LATTER OPTION IS
.*                                 DESIRED. OMISSION OF THIS OPERAND
.*                                 FORCES OPTION 2 WITH BACKUP SPACING
.*                                 EQUAL TO THE NUMBER OF BYTES SPECI-
.*                                 FIED BY THE NEXT OPERAND (TWICE THIS
.*                                 NUMBER IF SUFFIX IS EXPLICITLY OR
.*                                 IMPLICITLY B).
.*                            &BYTES - NUMBER OF TOTAL INPUT BYTES TO
.*                                 PROCESS. THIS NUMBER IS SUFFIXED
.*                                 WITH AN L,R, OR B TO STIPULATE
.*                                 PRINTING OF THE LEFT HALF, RIGHT
.*                                 HALF, OR BOTH HALVES OF THE BYTE
.*                                 RESPECTIVELY. OMISSION OF THIS
.*                                 OPERAND DEFAULTS TO B WITH THE NUM-
.*                                 BER OF BYTES EQUAL TO THE ITEM LNGTH
.*                            A NEW ENTRY IS GENERATED ONLY WHEN NECES-
.*                                 SARY. THIS MACRO MUST BE THE FIRST
.*                                 MACRO INSTRUCTION ISSUED FOR THE
.*                                 SUBJECT LINE(S).
         GBLC &ITEM(1000),&DSECT
         GBLA &ITEMNBR,&BITS(1000),&SHIFT(1000),&NRENTS
         LCLB  &B
         LCLA  &IBITS,&NDX,&ISHIFT,&K,&T,&CODE,&BYTESP
         LCLC  &S,&LETTER
.LOOP    ANOP
&NDX     SETA  &NDX+1
         AIF   ('&ITEM(&NDX)' EQ '&LOGITEM').FOUND
         AIF   (&NDX LT &ITEMNBR).LOOP
         MNOTE *,'LOG ITEM NOT DEFINED'
         MEXIT
.FOUND   ANOP
&ISHIFT  SETA  &SHIFT(&NDX)
&IBITS   SETA  &BITS(&NDX)
&CODE    SETA  1
&K       SETA  K'&BYTES
         AIF   (&IBITS-(&IBITS/4)*4 EQ 0).OK
         MNOTE *,'BIT LENGTH SPECIFICATION INCONSISTENT WITH CONTROL'
         MEXIT
.OK      AIF   ('&BYTES' EQ '').USEDEFN
&LETTER  SETC  '&BYTES'(&K,1)
&S       SETC  '&BYTES'(1,&K-1)
&BYTESP  SETA  &S
         AIF   ('&LETTER' EQ 'B').BOTH
         AIF   (&ISHIFT EQ 0 OR &ISHIFT EQ 4).OK2
.ERR     MNOTE *,'DATA NOT ALLIGNED ON HEX OR BYTE BOUNDARY'
         MEXIT
.USEDEFN ANOP
&BYTESP  SETA  &IBITS/8
.BOTH    AIF   (&ISHIFT NE 0).ERR
&CODE    SETA  3
&T       SETA  &BYTESP*2-1
&S       SETC  '&T'
.OK2     AIF   (&ISHIFT EQ 0).L
&CODE    SETA  2
.L       ANOP
&B       SETB  1
         AIF   ('&SKIP$OR' EQ '').BACKUP
&K       SETA  K'&SKIP$OR
&B       SETB  ('&SKIP$OR'(1,1) EQ 'B')
&S       SETC  '&SKIP$OR'(&B+1,&K-&B)
.BACKUP  ANOP
&NRENTS  SETA  &NRENTS+1
         DC    AL.12(&LOGITEM-&DSECT),XL.4'A'
         DC    BL.1'&B',FL.7'&S',FL.4'&BYTESP',FL.4'&CODE'
.OUT     ANOP
         MEND
         MACRO
         SPECIAL  &ROUTINE,&PARAM,&SPACE=
.*                            THIS MACRO GENERATES A SPECIAL ROUTINE
.*                                 ENTRY TO BE PROCESSED BY THE SUM. M.
.*                            &ROUTINE - SYMBOL ON SPECIAL ROUTINE EWT.
.*                            &PARAM - AN 8 BIT BINARY REPRESENTATION
.*                                 TO OCCUPY THE 'MASK' FIELD BUT TO BE
.*                                 INTERPRETED AS AN ARGUMENT OF THE
.*                                 SPECIAL ROUTINE.
.*                            &SPACE - THE NUMBER OF 2BYTE COUNTERS TO
.*                                 ALLOCATE FOR REQUIRED PROCESSING.
         GBLC  &CSECT
         GBLA  &COUNTR
         LCLA  &ADD
         DC    AL1(128)
         DC    BL.8'&PARAM'
         DC    AL2(&ROUTINE-&CSECT)
         DC    AL2(&COUNTR)
&ADD     SETA  1
         AIF   ('&SPACE' EQ '').NORM
&ADD     SETA  &SPACE
.NORM    ANOP
&COUNTR  SETA  &COUNTR+&ADD
         MEND
         MACRO
         SUM   &LOGITEM,&MASK
.*                            THIS MACRO GENERATES A NORMAL EDIT ENTRY
.*                                 FOR PROCESSING BY THE SUMMARY MODULE
.*                            &LOGITEM - NAME OF DATA ITEM TO BE SUMMED
.*                            &MASK - BYTE MASK FOR BITS TO BE TESTED.
.*                                 THIS OPERAND SHOULD BE OMITTED FOR
.*                                 SINGLE BIT ITEMS IN WHICH CASE THE
.*                                 MASK WILL BE SET ACCORDING TO THE
.*                                 OFF BYTE BIT DISPLACEMENT OF THE
.*                                ITEM AS DEFINED BY THE MACRO 'DSGEN'
         GBLA  &COUNTR,&ITEMNBR,&BITS(1000),&SHIFT(1000)
         GBLC  &ITEM(1000),&DSECT
         LCLA  &IBITS,&NDX,&ISHIFT,&M,&BITNBR
.LOOP    ANOP
&NDX     SETA  &NDX+1
         AIF   ('&ITEM(&NDX)' EQ '&LOGITEM').FOUND
         AIF   (&NDX LT &ITEMNBR).LOOP
         MNOTE *,'LOGITEM NOT FOUND'
         MEXIT
.FOUND   ANOP
         DC    AL1(0)
&ISHIFT  SETA  &SHIFT(&NDX)
&IBITS   SETA  &BITS(&NDX)
         AIF   ('&MASK' EQ '').FORM
         DC    B'&MASK'
         AGO   .ITEM
.FORM    ANOP
&BITNBR  SETA  &ISHIFT-7
&BITNBR  SETA  0-&BITNBR
&M       SETA  1
.LOOP2   ANOP
         AIF   (&BITNBR EQ 0).GOTIT
&M       SETA  &M*2
&BITNBR  SETA  &BITNBR-1
         AGO   .LOOP2
.GOTIT   ANOP
         DC    AL1(&M)
.ITEM    DC    AL2(&LOGITEM-&DSECT)
         DC    AL2(&COUNTR)
&COUNTR  SETA  &COUNTR+1
         MEND
         GBLC  &DSECT,&CSECT
&CSECT   SETC  'IFCSXXX0'
&DSECT   SETC  'XXX0'
IFCSXXX0 CSECT
*                   GBR SUM TABLE
*
*                   DEVICE CODE=4001 DEVICE TYPE=2702  ALIAS=IFCS2702
*                               4002             2701            2701
*                               4003             2703            2703
*
XXX0     DSECT
         DSGEN (XKEY1,16),(XDUM1,8),(XSW,1),(SW2B1,1),           S21021X
               (SHRTSW,1),(SW2B3,1),(SW2B4,1),(SW2B5,1),         S21021X
               (SW2B6,1),(SW2B7,1)                               S21021
         DSGEN (XDUM2,32)                    SPARES
         DSGEN (XDATE,32)                    DATE
         DSGEN (XTIME,32)                    TIME
         DSGEN (XDUM3,8),(XSER,24)           SERIAL NO
         DSGEN (XMODEL,16),(XDUM8,16)        MODEL NUMBER
         DSGEN (XPGN1,32)                    JOB
         DSGEN (XPGN2,32)                       NAME
         DSGEN (XFCCWCC,8),(XFCCWDA,24)      FAILING
         DSGEN (XFCCWFL,8),(XZERO,8),(XFCCWCT,16)   FAILING CCW
         DSGEN (XCSWK,8),(XCSWCA,24)                CSW
         DSGEN (XCSWATTN,1),(XCSWSM,1),(XCSWUA,1),(XCSWBSY,1),         C
               (XCSWCE,1),(XCSWDE,1),(XCSWUC,1),(XCSWUE,1),            C
               (XCSWPCI,1),(XCSWSILI,1),(XCSWPC,1),(XCSWPCHK,1),       C
               (XCSWCDC,1),(XCSWCCC,1),(XCSWICC,1),(XCSWCH,1),         C
               (XCSWCT,16)
         DSGEN (XECSW,32)                              ECSW
         DSGEN (XDEVT1,16),(XDEVT2,16)
         DSGEN (XDUM6,8),(XCUA,24)                     CUA
         DSGEN (XDUM7,32)                              VOLUME
         DSGEN (XVOL1,32)                                   SERIAL
         DSGEN (XVOL2,16),(XDUMP,16)                             NO
         DSGEN (XDUM11,32)
         DSGEN (XDUM12,32)
         DSGEN (XDUM13,32)
         DSGEN (XDUM14,32)
         DSGEN (SDR1,8),(SDR2,8),(SDR3,8),(SDR4,8),              S21021C
               (SDR5,8),(SDR6,8),(SDR7,8),(SDR8,8)               S21021
         DSGEN (XDUM17,16),                                            C
               (XB0CMDR,1),(XB0INTRQ,1),(XB0BUSC,1),(XB0ECHK,1),       C
               (XB0DCHK,1),(XB0ORUN,1),(XB0RECV,1),(XB0TOUT,1),        C
               (XDUM18,8)
*                                                                S21021
EXPNOBR  DSECT                                                   S21021
EXPNHDRA DS    CL52                                              S21021
EXPNDEVA DS    CL12                                              S21021
EXPNDA   DS    CL24                                              S21021
EXPNSDRA DS    CL10                                              S21021
EXPNSNSA DS    CL6                                               S21021
*                                                                S21021
SHRTOBR  DSECT                                                   S21021
SHRTHDRA DS    CL24                                              S21021
SHRTDEVA DS    CL8                                               S21021
SHRTSDRA DS    CL10                                              S21021
*                                                                S21021
NORMOBR  DSECT                                                   S21021
NORMHDRA DS    CL64                                              S21021
NORMSDRA DS    CL10                                              S21021
NORMSNSA DS    CL6                                               S21021
*                                                                S21021
IFCSXXX0 CSECT
         USING XXX0,R2
         USING *,R9
         DC    A(ENTRIES)               PTR TO ENTRIES
         DC    A(PEDIT)                 PTR TO EDIT SECTION OF SUM TBL
REG8     DC    F'0'                     R8 SAVE AREA CURRENT ENTRY
SCSIZE   DC    H'110'                   NO OF 2 BYTE CNTRS TO GETS21021
R0       EQU   0
R1       EQU   1
R2       EQU   2
R3       EQU   3
R4       EQU   4
R5       EQU   5
R6       EQU   6
R7       EQU   7
R8       EQU   8
R9       EQU   9
R10      EQU   10
R11      EQU   11
R12      EQU   12
R13      EQU   13
R14      EQU   14
R15      EQU   15
*
*        SPECIAL ROUTINE SECTION   R2=PTR TO LOGREC R9=BASE ADDR
*                                  R3=PTR TO BUM COUNTER
XFAILCCW EQU   *
         TM    XSW,HEX20                IS THIS A SHORT RECORD?  S21021
         BCR   1,R14                    YES, NO CCW, RETURN      S21021
*
         STM   R14,R12,L12(R13)         SAVE REGS
         SR    R7,R7
         IC    R7,XFCCWCC               PICK UP FAILING CCW CODE
         B     COMMON
*
*
XDATE1   STM   R14,R15,L12(R13)         SAVE R14 & R 15          S21021
         BAL   R14,EXPANDER             BAL TO EXPAND REC        S21021
         STM   R0,R12,L20(R13)          SAVE REMAINDER OF REGS   S21021
         CLC   XDATE(L4),HEX00         IS DATE ZERO
         BE    RETURN                   BR-ZERO
         CLC   L0(L4,R3),HEX00          IS LOW DATE ZERO
         BNE   XDATE2                   BR-NO
         MVC   L0(L4,R3),XDATE          MOVE IN DATE
XDATE2   EQU   *
         CLC   XDATE(L4),L0(R3)         CHECK FOR LOW DATE
         BL    SAVELOW                  LOWER SAVE IT
         CLC   XDATE(L4),L4(R3)         CHECK FOR HI
         BNH   RETURN                   BR-NOT HI
SAVEHI   MVC   L4(L4,R3),XDATE          MOVE HI DATE
         B     RETURN
SAVELOW  MVC   L0(L4,R3),XDATE          MOVE LOW DATE
         B     RETURN
*                                                                S21021
*                                       ROUTINE TO SUM SDR CNTRS S21021
*                                                                S21021
SDR1L    IC    R15,SDR1                                          S21021
SDRLEFT  SLL   R15,L24                  SHIFT OFF UNUSED BITS    S21021
SDRADD   SRL   R15,L28                  MOVE IT BACK FOR ADD     S21021
         AH    R15,L0(R3)               ADD IN COUNTER           S21021
         STH   R15,L0(R3)               SAVE RESULT              S21021
         BR    R14  RETURN                                       S21021
SDR1R    IC    R15,SDR1                 PICK UP COUNTER          S21021
SDRRIGHT SLL   R15,L28                  SHIFT OFF UNUSED BITS    S21021
         B     SDRADD                                            S21021
SDR2L    IC    R15,SDR2                                          S21021
         B     SDRLEFT                                           S21021
SDR3L    IC    R15,SDR3                                          S21021
         B     SDRLEFT                                           S21021
SDR4L    IC    R15,SDR4                                          S21021
         B     SDRLEFT                                           S21021
SDR5L    IC    R15,SDR5                                          S21021
         B     SDRLEFT                                           S21021
SDR6L    IC    R15,SDR6                                          S21021
         B     SDRLEFT                                           S21021
SDR7L    IC    R15,SDR7                                          S21021
         B     SDRLEFT                                           S21021
SDR8L    IC    R15,SDR8                                          S21021
         B     SDRLEFT                                           S21021
SDR2R    IC    R15,SDR2                                          S21021
         B     SDRRIGHT                                          S21021
SDR3R    IC    R15,SDR3                                          S21021
         B     SDRRIGHT                                          S21021
SDR4R    IC    R15,SDR4                                          S21021
         B     SDRRIGHT                                          S21021
SDR5R    IC    R15,SDR5                                          S21021
         B     SDRRIGHT                                          S21021
SDR6R    IC    R15,SDR6                                          S21021
         B     SDRRIGHT                                          S21021
SDR7R    IC    R15,SDR7                                          S21021
         B     SDRRIGHT                                          S21021
SDR8R    IC    R15,SDR8                                          S21021
         B     SDRRIGHT                                          S21021
*                                                                S21021
EXPANDER STM   R5,R6,XSAVE              SAVE WORK REGS           S21021
         LA    R5,OBRAREA               GET EXP AREA             S21021
         LR    R6,R2                    SWAP ADDRESSES           S21021
         USING EXPNOBR,R5               SET DSECT ADDRESSABILITY S21021
         USING NORMOBR,R6                                        S21021
         XC    OBRAREA(L104),OBRAREA    CLEAR AREA               S21021
         TM    XKEY1,HEX02              IS IT A CONVERTED REC    S21021
         BO    MOVEALL                  YES                      S21021
         TM    XSW,HEX20                IS IT A SHORT HEC        S21021
         BO    MOVESHRT                 YES                      S21021
         MVC   EXPNHDRA(L64),NORMHDRA   EXPAND RECORD            S21021
         MVC   EXPNSDRA(L10),NORMSDRA                            S21021
         MVC   EXPNSNSA(L6),NORMSNSA                             S21021
EXPNDRET ST    R2,SAVE2                 SAVE R2                  S21021
         LR    R2,R5                    SWAP REG POINTERS        S21021
         LM    R5,R6,XSAVE              RESET REGS               S21021
         BR    R14  RETURN                                       S21021
MOVEALL  MVC   EXPNOBR(L104),NORMOBR    MOVE ALL REC             S21021
         B     EXPNDRET                                          S21021
         USING SHRTOBR,R6                                        S21021
MOVESHRT MVC   EXPNHDRA(L24),SHRTHDRA                            S21021
         MVC   EXPNDEVA(L8),SHRTDEVA                             S21021
         MVC   EXPNSDRA(L10),SHRTSDRA                            S21021
         B     EXPNDRET                                          S21021
*                                                                S21021
RESETR2  L     R2,SAVE2                 RESET R2                 S21021
         BR    R14                                               S21021
*                                                                S21021
*
*
L0       EQU   0
L1       EQU   1
L2       EQU   2
L3       EQU   3
L4       EQU   4
L5       EQU   5
L6       EQU   6                                                 S21021
L7       EQU   7
L8       EQU   8
L9       EQU   9                                                 S21021
L10      EQU   10
L12      EQU   12
L13      EQU   13                                                S21021
L14      EQU   14                                                S21021
L16      EQU   16                                                S21021
L17      EQU   17                                                S21021
L18      EQU   18                                                S21021
L20      EQU   20                                                S21021
L24      EQU   24                                                S21021
L28      EQU   28                                                S21021
L32      EQU   32                                                S21021
L36      EQU   36                                                S21021
L64      EQU   64                                                S21021
L104     EQU   104                                               S21021
HEX20    EQU   X'20'                                             S21021
SAVE2    DS    F                                                 S21021
OBRAREA  DS    CL104                                             S21021
         DS    0H