*          DATA SET AM012400   AT LEVEL 003 AS OF 01/04/75
         MACRO
&NAME    ACCEPT &REC,&DDNAME=SYSIN
.*             AUTHOR.   DON HIGGINS.
.*             DATE.     11/19/74.
.*             REMARKS.  ACCEPT RECORD IF DD AVAILABLE.
.*                       REC MAY GE REGISTER OR LABEL OF RECORD AREA.
.*                      R15=0 SUCCESSFUL READ.
.*                      R15=4 EOF OR NO DD FOUND.
&NAME    TAG
ACC1&SYSNDX B  *+4
         FINDDD =CL8'&DDNAME'
         IF    (LTR,R1,R1,Z)
               WTO  '&DDNAME NOT FOUND'
ACC2&SYSNDX    LA   R15,4
               MVC  ACC1&SYSNDX+2(2),=S(ACC2&SYSNDX)
               B    ACC4&SYSNDX
         FI
         MVC   ACC1&SYSNDX+2(2),=S(ACC3&SYSNDX)
         OPEN  (&DDNAME)
         B     ACC3&SYSNDX
&DDNAME  DCB   DSORG=PS,MACRF=GL,DDNAME=&DDNAME,EODAD=ACC2&SYSNDX
ACC3&SYSNDX GET &DDNAME
         AIF   ('&REC'(1,1) EQ '(').REG
         MVC   &REC,0(R1)
         ZR    R15
         AGO   .EXIT
.REG     ANOP
         LR    &REC,R1
         ZR    R15
.EXIT    ANOP
ACC4&SYSNDX TAG
         MEND
