*          DATA SET AM001000   AT LEVEL 001 AS OF 01/11/73
         MACRO
&NAME    IOB   &FLAGS=,&ECB=,&CCW=,&DCB=,&ID=
.*             AUTHOR.   DON HIGGINS.
.*             DATE.     11/23
.*             REMARKS.  INPUT/OUTPUT CONTROL BLOCK MACRO.
.*                       REF. SYS. PROG. GUIDE C28-6550-6 PG 139
.*
&NAME    DS    0F
         DC    &FLAGS         FLAGS 1  0-CD 1-CC 6-NOT REL 23457-RESV
         DC    XL1'00'        FLAGS 2  RESERVED
SNS&ID   DC    XL2'00'        FIRST TWO SENSE BYTES AFTER UNIT CHECK
         DC    XL1'00'        ECB CODE
ECB&ID   DC    AL3(&ECB)      EVENT CONTROL BLOCK ADDRESS
         DC    XL1'00'        FLAGS 3 RESERVED
CSW&ID   DC    XL7'00'        CHANNEL STATUS WORD (LOW ORDER 7 BYTES)
         DC    XL1'00'        SIO CODE (INS LENGTH X CONDITION CODE)
CCW&ID   DC    AL3(&CCW)      CHANNEL COMMAND WORD ADDRESS
         DC    XL1'00'        RESERVED
DCB&ID   DC    AL3(&DCB)      DATA CONTROL BLOCK ADDRESS
         DC    XL1'00'        REPOSITION MODIFIER
         DC    AL3(0)         RESTART ADDRESS
         DC    H'0'           BLOCK COUNT INCREMENT
         DC    H'0'           ERROR COUNTS
         DC    XL1'00'        M - EXTENT ENTRY IN DEB
         DC    XL7'00'        SEEK ADDRESS BBCCHHR
         MEND
