*          DATA SET AM002900   AT LEVEL 001 AS OF 01/11/73
         MACRO
&NAME    TAG
&NAME    DS    0H
         MEND
