         MACRO -- $#BLD -- BUILD WORK AND CHARACTERISTICS JOES       R4
&NAME    $#BLD &JOES=,&PDDB=,&JQE=                                   R4
         GBLC  &NAME1              LOCATION SYMBOL NAME              R4
         $CHEK &JOES,&PDDB         ALL KEYWORDS                      R4
         $CHEK &JQE,&JQE             MUST BE SPECIFIED               R4
&NAME1   SETC  '&NAME'             SET UP LABEL                      R4
         $DECOD1 &JOES,,LA,R1      ADDRESS OF CHAR/WORK JOES         R4
         $DECOD1 &PDDB,,LA,R0      ADDRESS OF PDDB                   R4
         $DECOD1 &JQE,,L,R15       OFFSET OF JOB QUEUE ELEMENT       R4
&NAME1   L     LINK,$JOEBLD        LOAD JOE BUILD ENTRY ADDRESS      R4
         BALR  LINK,LINK           LINK TO SERVICE ROUTINE           R4
         MEND                                                        R4
