         MACRO -- $#CAN -- CANCEL ALL JOES FOR A JOB
&NAME    $#CAN &JQE=
         GBLC  &NAME1              LOCATION SYMBOL NAME
&NAME1   SETC  '&NAME'             SET TO PROGRAMMER SUPPLIED
         AIF   ('&JQE' EQ '').JQEX IS JQE ADDRESS MISSING
         $DECOD1 &JQE,,L,R1        SET JOB QUEUE ELEMENT ADDRESS
&NAME1   L     R15,$JOECAN         GET ADDR OF JOE CANCEL SUBROUTINE R4
         BALR  R14,R15             GIVE IT A TRY
         MEXIT
.JQEX    ANOP
         MNOTE 8,'JOB QUEUE ELEMENT ADDRESS MISSING'
         MEND
