         MACRO -- $#CKPT -- REQUEST CHECKPOINT FOR ALTERED JOES@OZ40444
&NAME    $#CKPT &JOE=,&TYPE=D,&HEAD=NO                         @OZ40444
         $CHEK  X,&JOE                                         @OZ40444
&NAME    STM   R14,R1,$CSAVREG                                 @OZ40444
         $DECOD1 &JOE,,LA,R1                                   @OZ40444
         AIF   ('&TYPE' NE 'D').A                              @OZ40444
         L     R15,$JOEOFFA        GET ENTRY POINT ADDRESS     @OZ40444
.A       AIF   ('&TYPE' EQ 'D').C                              @OZ40444
         AIF   ('&TYPE' EQ 'A').B                              @OZ40444
         MNOTE 8,'INVALID TYPE SPECIFICATION'                  @OZ40444
         MEXIT                                                 @OZ40444
.B       L     R15,$JOECKPA        GET ENTRY POINT ADDRESS     @OZ40444
.C       AIF   ('&HEAD' NE 'NO').D                             @OZ40444
         BALR  R14,R15             CHECKPOINT ALTERED JOE      @OZ40444
         AGO   .E                                              @OZ40444
.D       BAL   R14,0(,R15)         CKPT ALTERED JOE            @OZ40444
.E       LM    R14,R1,$CSAVREG                                 @OZ40444
.*                                 THIS CARD DELETED BY APAR   @OZ40444
.*                                 THIS CARD DELETED BY APAR   @OZ40444
.*                                 THIS CARD DELETED BY APAR   @OZ40444
.*                                 THIS CARD DELETED BY APAR   @OZ40444
.*                                 THIS CARD DELETED BY APAR   @OZ40444
.*                                 THIS CARD DELETED BY APAR   @OZ40444
.*                                 THIS CARD DELETED BY APAR   @OZ40444
.*                                 THIS CARD DELETED BY APAR   @OZ40444
.*                                 THIS CARD DELETED BY APAR   @OZ40444
.*                                 THIS CARD DELETED BY APAR   @OZ40444
         MEND                                                  @OZ40444
