         MACRO -- $#GET -- GET A JOE FROM THE JOT
&NAME    $#GET &WTRID=,&DCT=,&HAVE=YES
         GBLC  &NAME1              LOCATION SYMBOL NAME
&NAME1   SETC  '&NAME'             SET TO PROGRAMMER SUPPLIED
         AIF   ('&DCT' EQ '').DCTX IS DCT ADDRESS MISSING
         $DECOD1 &DCT,,L,R1        SET DCT ADDRESS REGISTER
         AIF   ('&HAVE' EQ 'YES').HAVE DOES CALLER WANT WORK
&NAME1   ICM   R1,8,=X'80'         SET 'HAVE=NO' BIT                 R4
&NAME1   SETC  ''                                                    R4
.HAVE    ANOP
&NAME1   L     R15,$JOEGET         GET ADDRESS OF JOE GET SUBROUTINE R4
         BALR  R14,R15             GIVE IT A TRY
         MEXIT
.DCTX    ANOP
         MNOTE 8,'PRINT/PUNCH DCT ADDRESS MISSING'
         MEND
