         MACRO -- $#JCT -- JCT RESIDENCE MANAGEMENT
&NAME    $#JCT &OPTN,&REFRESH=NO                                    R41
         AIF   ('&OPTN' NE 'READ').JCT01 BRANCH IF NOT READ
&NAME    L     R15,$JCTRDR         LOAD JCT READER BASE
         AIF   ('&REFRESH' NE 'YES').JCTBALR  BR IF NOT REFRESH     R41
         BAL   R14,0(,R15)         BR TO READ LATEST JCT            R41
         MEXIT                                                      R41
.JCT01   ANOP
         AIF   ('&OPTN' NE 'WRITE').JCT02 BRANCH IF NOT WRITE
&NAME    L     R15,$JCTWTR         LOAD JCT WRITER BASE
         AGO   .JCTBALR
.JCT02   ANOP
         AIF   ('&OPTN' NE 'FREE').JCT03 BRANCH IF NOT FREE
&NAME    L     R15,$JCTFRE         LOAD JCT FREE BASE
         AGO   .JCTBALR
.JCT03   ANOP
         MNOTE 8,'OPTION &OPTN INVALID - (READ, WRITE, OR FREE)'
         MEXIT
.JCTBALR ANOP
         BALR  R14,R15             BRANCH TO JCT RESIDENCE MANAGEMENT
         MEND
