         MACRO -- $#PUT -- RETURN A JOE TO THE JOT
&NAME    $#PUT &WORK=,&PRC=
         GBLC  &NAME1              LOCATION SYMBOL NAME
&NAME1   SETC  '&NAME'             SET TO PROGRAMMER SUPPLIED
         AIF   ('&PRC' EQ '').NOPRC WAS PRC ADDRESS GIVEN
         $DECOD1 &PRC,,L,R0        SET PRC ADDRESS REGISTER
         AGO   .PRC
.NOPRC   ANOP
&NAME    SR    R0,R0               R0=0 (NO PRC GIVEN)
&NAME1   SETC  ''                  SET LOCATION TO NULL
.PRC     ANOP
         AIF   ('&WORK' EQ '').WORKX IS WORK-JOE ADDRESS MISSING
         $DECOD1 &WORK,,L,R1       SET WORK-JOE ADDRESS REGISTER
&NAME1   L     R15,$JOEPUT         GET ADDRESS OF JOE PUT SUBROUTINE R4
         BALR  R14,R15             GIVE IT A TRY
         MEXIT
.WORKX   ANOP
         MNOTE 8,'WORK-JOE ADDRESS MISSING'
         MEND
