         MACRO -- $$WTOR -- ISSUE DIRECT WTOR                        R4
&NAME    $$WTOR &MSG                                                 R4
&NAME    $$WTO  &MSG               USE $$WTO ROUTINE FOR $$WTOR'S    R4
         MEND                                                        R4
