         MACRO -- $$WTO -- ISSUE DIRECT WTO                          R4
&NAME    $$WTO &MSG                                                  R4
         LCLC  &N                                                    R4
         $CHEK X,&MSG              ENSURE MESSAGE ADDRESS PRESENT    R4
         AIF   ('&MSG' EQ '(R1)').B                                  R4
         AIF   ('&MSG'(1,1) NE '(').A                                R4
&NAME    LR    R1,&MSG(1)          RELOAD MESSAGE ADDRESS            R4
         AGO   .C                                                    R4
.A       ANOP                                                        R4
&NAME    LA    R1,&MSG             POINT TO MESSAGE                  R4
         AGO   .C                                                    R4
.B       ANOP                                                        R4
&N       SETC  '&NAME'                                               R4
.C       ANOP                                                        R4
&N       L     R15,$$WTO           GET $$WTO/$$WTOR ROUTINE ADDRESS  R4
         BALR  LINK,R15             AND LINK TO IT                   R4
         MEND                                                        R4
