         MACRO -- $ACTIVE -- INDICATE PROCESSOR ACTIVE
&NAME    $ACTIVE &DUMMY,&R=R1
&NAME    IC    &R,$ACTIVE          INDICATE
         LA    &R,1(,&R)            PROCESSOR
         STC   &R,$ACTIVE            ACTIVE
         MEND
