         MACRO -- $BFRBLD -- BUILD BUFFER PREFIX AREA IN HASP BUFFER R4
&NAME    $BFRBLD &ADDR,&TYPE=HASP                                    R4
         $CHEK X,&ADDR             BUFFER ADDRESS MUST BE PROVIDED   R4
&NAME    $DECODE &ADDR,OPA=L       OBTAIN BUFFER ADDRESS IN R1       R4
         L     R15,$BFRBLD         GET BUFFER BUILD ROUTINE ADDRESS  R4
         AIF   ('&TYPE' NE 'HASP').A                                 R4
         BALR  LINK,R15            ENTER BUFFER BUILD ROUTINE        R4
         MEXIT                                                       R4
.A       $DECODE ,&TYPE,HB=BUF     OBTAIN BUFFER TYPE IN R0          R4
         BAL   LINK,0(,R15)        ENTER BUFFER BUILD ROUTINE        R4
         MEND                                                        R4
