         MACRO -- $COUNT -- COUNT SELECTED OCCURRENCES
&NAME    $COUNT &DUMMY,&R=R1
&NAME    TM    $RUNOPTS,$DEBUG     IF DEBUG OPTION NOT SELECTED,     R4
         BZ    *+20                 BR AROUND COUNT                  R4
         LH    &R,*+14             GENERATE                          R4
         LA    &R,1(,&R)            CUMULATIVE
         STH   &R,*+6                OCCURRENCE
         NOP   *-*                    COUNT
         MEND
