         MACRO -- $DECODE -- DECODE MACRO ARGUMENTS - FIRST LEVEL
&NAME    $DECODE &A,&B,&HA=,&HB=,&OPA=LA,&OPB=LA,&RA=R1,&RB=R0
         GBLC  &NAME1
&NAME1   SETC  '&NAME'             SET UP LOCATION
         $DECOD1 &A,&HA,&OPA,&RA   SET UP FIRST ARGUMENT
         $DECOD1 &B,&HB,&OPB,&RB   SET UP SECOND ARGUMENT
         AIF   ('&NAME1' EQ '').END
&NAME1   NULL                      DEFINE LOCATION IF NOT DEFINED
.END     MEND
