         MACRO -- $DISTERR -- INDICATE DISASTROUS ERROR CONDITION
&NAME    $DISTERR
         $CHEK X,&NAME             INSURE SYMBOL REFERENCE WAS PROVIDED
&NAME    L     R15,$DISTERR        GET DISASTROUS ERROR RTN ADDR     R4
         BALR  LINK,R15             AND LINK TO IT                   R4
         DC    0AL4(&NAME),CL8'&NAME'        SYMBOL REFERENCE
         DC    CL8'&SYSECT'                  CSECT REFERENCE
         MEND
