         MACRO -- $DORMANT -- INDICATE PROCESSOR INACTIVE
&NAME    $DORMANT &DUMMY,&R=R1
&NAME    IC    &R,$ACTIVE          INDICATE
         BCTR  &R,0                 PROCESSOR
         STC   &R,$ACTIVE            INACTIVE
         MEND
