         MACRO -- $ERROR -- INDICATE CATASTROPHIC ERROR CONDITION
&NAME    $ERROR
         LCLC  &CD                                                   R4
         $CHEK X,&NAME             INSURE ERROR CODE WAS PROVIDED
&CD      SETC  '&NAME'                                               R4
&NAME    L     BASE1,$ERROR        GET CATASTROPHIC ERROR RTN ADDR   R4
         BALR  R0,BASE1             AND GO TO IT                     R4
         DC    0AL4(&CD),CL4'&CD'  HASP SYSTEM ERROR CODE            R4
         MEND
