         MACRO -- $EXCP -- INITIATE INPUT/OUTPUT OPERATION           R4
&NAME    $EXCP &DCT,&TYPE=,&WAIT=NO                                  R4
         $CHEK X,&DCT              ENSURE DCT ADDRESS PRESENT        R4
&NAME    $DECODE &DCT,OPA=L        SET UP DCT ADDRESS IN R1          R4
         L     R15,$EXCP           GET EXCP ROUTINE ADDRESS          R4
         AIF   ('&TYPE' EQ 'VR').A                                   R4
         BALR  LINK,R15            INITIATE I/O VIA EXCP             R4
         AGO   .B                                                    R4
.A       BAL   LINK,0(,R15)        INITIATE I/O VIA EXCPVR           R4
.B       AIF   ('&WAIT' EQ 'NO').END                                 R4
         DC    AL2(0)              WAIT FOR I/O TO COMPLETE          R4
.END     MEND                                                        R4
