         MACRO -- $EXTP -- INITIATE REMOTE TERMINAL I/O              R4
&NAME    $EXTP &TYPE,&DCT,&LOC                                       R4
         LCLC  &TP                                                   R4
         $CHEK &TYPE,&DCT          INSURE ARGUMENTS WERE PROVIDED    R4
         AIF   ('&TYPE' NE 'GET' AND '&TYPE' NE 'PUT').A             R4
         $CHEK X,&LOC              INSURE DATA ADDRESS WAS PROVIDED  R4
.A       ANOP                                                        R4
&NAME    $DECODE &DCT,&LOC,OPA=L   SET UP ARGUMENT ADDRESSES         R4
&TP      SETC  '&TYPE'(1,3)        SET UP TYPE CODE                  R4
         L     R15,$EXTP           GET ADDR OF RTAM SERVICE ROUTINES R4
         BALR  LINK,R15            LINK TO RTAM SERVICE ROUTINE      R4
         DC    Y($EXTP&TP*($AMTYPES*4))  OFFSET TO $EXTP ADCON LIST  R4
         MEND                                                        R4
