         MACRO -- $FRECEL -- FREE A CSA STORAGE CELL
&NAME    $FRECEL &CELL=(R1)                                         R41
&NAME    $DECODE &CELL
         L     R15,$FRECEL         POINT TO ROUTINE
         BALR  LINK,R15            ENTER FREE CELL ROUTINE
         MEND
