         MACRO -- $FREEBUF -- FREE A BUFFER
&NAME    $FREEBUF &LOC,&TYPE                                         R4
         $CHEK X,&LOC              INSURE BUFFER ADDRESS WAS PROVIDED
&NAME    $DECODE &LOC,OPA=L        SET UP BUFFER ADDRESS IN R1
         L     R15,$FREEBUF        GET BUFFER 'FREE' ROUTINE ADDRESS R4
         AIF   ('&TYPE' EQ 'MULTIPLE').A                             R4
         BALR  LINK,R15            BR TO FREE SINGLE BUFFER          R4
         MEXIT                                                       R4
.A       BAL   LINK,0(,R15)        BR TO FREE MULTIPLE BUFFERS       R4
         MEND                                                        R4
