         MACRO -- $FRELOK -- FREE CMS LOCK
&NAME    $FRELOK
&NAME    L     R15,$FRELOK         POINT TO ROUTINE
         BALR  LINK,R15            FREE LOCK
         MEND
