         MACRO -- $FREUNIT -- FREE A UNIT
&NAME    $FREUNIT &LOC
         $CHEK X,&LOC              INSURE DCT ADDRESS WAS PROVIDED
&NAME    $DECODE &LOC,OPA=L        SET UP DCT ADDRESS IN R1
         BAL   LINK,$FREUNIT       ENTER CONTROL SERVICE ROUTINE     R4
         MEND
