         MACRO -- $GETUNIT -- GET A UNIT
&NAME    $GETUNIT &DCT,&NONE                                         R4
         $CHEK X,&DCT              INSURE DCT ADDRESS WAS PROVIDED   R4
&NAME    $DECODE &DCT,OPA=L        SET UP DCT ADDRESS IN R1          R4
         BAL   LINK,$GETUNIT       LINK TO CONTROL SERVICE PROGRAM
         $NPEXIT &NONE             SET UP NON-PROCESS EXIT
         MEND
