         MACRO -- $GETSMFB -- GET SMF BUFFER
&NAME    $GETSMFB &WAIT=NO
         AIF   ('&WAIT' EQ 'NO').A
&NAME    LA    R1,1                WAIT FOR SMF IF NECESSARY
         AGO   .B
.A       ANOP
&NAME    SR    R1,R1               DO NOT WAIT IF NO BUFFERS FREE
.B       ANOP
         BAL   LINK,$GETSMFB       LINK TO CONTROL SERVICE PROGRAM
         MEND
