         MACRO -- $GETLOK -- GET CMS LOCK
&NAME    $GETLOK
&NAME    L     R15,$GETLOK         POINT TO ROUTINE
         BALR  LINK,R15            ENTER GET LOCK ROUTINE
         MEND
