         MACRO -- $GETBUF -- GET ONE OR MORE BUFFERS                 R4
&NAME    $GETBUF &NONE,&NUM=1,&TYPE=HASP,&FIX=NO,&WAIT=NO            R4
         LCLC  &BFTYPE                                               R4
&BFTYPE  SETC  'BUF&TYPE'                                            R4
         AIF   ('&BFTYPE' NE 'BUFTP').AA                             R4
         MNOTE 4,'TYPE=TP INVALID -- TYPE=BSC ASSUMED'               R4
&BFTYPE  SETC  'BUFBSC'                                              R4
.AA      ANOP                                                        R4
&NAME    L     R15,$GETBUF         GET ADDRESS OF $GETBUF ROUTINE    R4
         AIF   ('&NUM' EQ '1').A                                     R4
         $DECODE  &NUM,OPA=LA,RA=R0                            @OZ59802
&BFTYPE  SETC  '&BFTYPE'.'+BUFMULT'                                  R4
.A       AIF   ('&FIX' EQ 'NO').B                                    R4
&BFTYPE  SETC  '&BFTYPE'.'+BUFFIX'                                   R4
.B       LA    R1,&BFTYPE          SET REQUEST OPTIONS               R4
         AIF   ('&WAIT' EQ 'NO').D                                   R4
         AIF   ('&NONE' EQ '').C                                     R4
         MNOTE 4,'NON-PROCESS EXIT IGNORED'                          R4
.C       BALR  LINK,R15            ENTER $GETBUF ROUTINE             R4
         MEXIT                                                       R4
.D       BAL   LINK,0(,R15)        ENTER $GETBUF ROUTINE             R4
         $NPEXIT &NONE             SET UP NON-PROCESS EXIT           R4
         MEND                                                        R4
