         MACRO -- $GETCEL -- GET A CSA STORAGE CELL SP 231
&NAME    $GETCEL &SJB=(R0),&TCB=(R1),&SIZE=(R4),&NONE=
&NAME    $DECODE &TCB,&SJB
         $DECODE &SIZE,RA=R4
         L     R15,$GETCEL         POINT TO ROUTINE
         BALR  LINK,R15            ENTER GET CELL ROUTINE
         LTR   R1,R1               TEST FOR GOTTEN
         BZ    &NONE               BR IF NO STORAGE
         MEND
