         MACRO -- $HCTENT -- GENERATE HASP COMMUNICATION TABLE ENTRY
&NAME    $HCTENT &OP,&A,&B
         AIF   ('&SYSECT' EQ 'HASPNUC').B
         AIF   ('&OP' EQ 'B').A
&NAME    DC    &OP.(&B)
         MEXIT
.A       ANOP
&NAME    B     *
         MEXIT
.B       AIF   ('&OP' EQ 'B').C
&NAME    DC    &OP.(&A)
         MEXIT
.C       B     &NAME
         MEND
