         MACRO -- $IOERROR -- LOG HASP INPUT/OUTPUT ERROR
&NAME    $IOERROR &IOB
         $CHEK X,&IOB              INSURE IOB ADDRESS WAS PROVIDED
&NAME    $DECODE &IOB,OPA=L        SET UP IOB ADDRESS IN R1
         L     R15,$IOERROR        GET I/O ERROR ROUTINE ADDR        R4
         BALR  LINK,R15             AND LINK TO IT                   R4
         MEND
