         MACRO -- $LINK -- BRANCH AND LINK TO ANOTHER HASP SEGMENT
&NAME    $LINK &SEG
         AIF   ('&SEG'(1,1) EQ '(').B
         AIF   (K'&SEG LT 5 OR K'&SEG GT 8).ERROR
         AIF   ('&SEG'(1,4) EQ 'HASP').A
.ERROR   MNOTE 8,'ILLEGAL HASP SEGMENT NAME'
         MEXIT
.A       ANOP
&NAME    L     BASE3,=V(&SEG)      LOAD HASP SEGMENT ADDRESS
         AGO   .C
.B       ANOP
&NAME    L     BASE3,0(,&SEG(1))   LOAD HASP SEGMENT ADDRESS
.C       ANOP
         BALR  LINK,BASE3           AND LINK TO IT
         MEND
