         MACRO -- $MSG -- WRITE TO OPERATOR MESSAGE AREA
&NAME    $MSG  &ID,&TEXT,&SYMB=,&JOB=NO
         LCLA  &L
         LCLC  &F
         AIF   (K'&ID NE 3).D
&F       SETC  'F'
         AIF   ('&JOB' EQ 'NO').A
&F       SETC  'E'
.A       ANOP
&F       SETC  '&ID.&F'
         $MID  &ID
&L       SETA  K'&TEXT
         AIF   (&L LT 3).B
&NAME    DC    0CL&L.' ',X'&F',C&TEXT
         AIF   ('&SYMB' EQ '').C
&L       SETA  &L-2
&SYMB    EQU   &NAME+2,&L
         MEXIT
.B       ANOP
&NAME    DC    X'&F'
         MEXIT
.D       ANOP
         MNOTE 12,'THREE DIGIT IDENTIFICATION REQUIRED'
.C       MEND
