         MACRO -- $PATCHSP -- GENERATE PATCH SPACE
&NAME    $PATCHSP &PATCHSP
         LCLA  &COUNT
&COUNT   SETA  &PATCHSP
&NAME    $DECODE ,                 DEFINE LOCATION
.A       AIF   (&COUNT LE 0).END
         DC    S(*)
&COUNT   SETA  &COUNT-2
         AGO   .A
.END     MEND
