         MACRO -- $PGSRVC -- BRANCH ENTRY TO MVS PAGE SERVICE RTNS   R4
&NAME    $PGSRVC &TYPE,&ADDR,&LENGTH,&ECB,&RELEASE=            @OZ20010
         LCLB  &BAL                                            @OZ20010
         $CHEK   &TYPE,&ADDR                                         R4
         $CHEK   X,&LENGTH                                           R4
         AIF   ('&TYPE' NE 'FIX').TSTRLSE                      @OZ20010
         $CHEK   X,&ECB                                              R4
.TSTRLSE AIF   ('&TYPE' EQ 'RLSE').NORLSE                      @OZ20010
         AIF   ('&RELEASE' EQ '').A                            @OZ20010
         AIF   ('&RELEASE' EQ 'N').A                           @OZ20010
         AIF   ('&RELEASE' NE 'Y').INVAL                       @OZ20010
&BAL     SETB  1                                               @OZ20010
         AGO   .A                                              @OZ20010
.NORLSE  AIF   ('&RELEASE' EQ '').A                            @OZ20010
.INVAL   MNOTE 8,'INVALID OPERAND -- RELEASE=&RELEASE'         @OZ20010
         MEXIT                                                 @OZ20010
.A       ANOP                                                        R4
&NAME    $DECODE &LENGTH,OPA=L,RA=R0                                 R4
         $DECODE &ADDR,OPA=L,RA=R1                                   R4
         AIF     ('&TYPE' NE 'FIX').B                                R4
         $DECODE &ECB,OPA=L,RA=R2                                    R4
.B       ANOP                                                        R4
         L     R15,$PG&TYPE        GET PROPER PAGE SERVICE RTN ADDR  R4
         AIF   (&BAL).BAL                                      @OZ20010
         BALR  LINK,R15             AND LINK TO IT                   R4
         MEXIT                                                 @OZ20010
.BAL     BAL   LINK,0(,R15)        AND LINK TO IT              @OZ20010
         MEND                                                        R4
