         MACRO -- $PURGE -- FREE DIRECT ACCESS SPACE
&NAME    $PURGE &LOC
         $CHEK X,&LOC              INSURE CYL MAP ADDRESS WAS PROVIDED
&NAME    $DECODE &LOC              SET UP CYLINDER MAP ADDRESS IN R1
         BAL   LINK,$PURGER        LINK TO CONTROL SERVICE PROGRAM
         MEND
