         MACRO -- $QADD -- ADD ELEMENT TO HASP JOB QUEUE
&NAME    $QADD &LOC,&CUE,&NONE
         $CHEK &LOC,&CUE           INSURE ARGUMENTS WERE PROVIDED
&NAME    $DECODE &LOC,&CUE         SET UP ARGUMENT ADDRESSES
         BAL   LINK,$QADD          LINK TO CONTROL SERVICE PROGRAM
         $NPEXIT &NONE             SET UP NON-PROCESS EXIT
         MEND
