         MACRO -- $QCKPT -- CHECKPOINT ELEMENT IN HASP JOB QUEUE
&NAME    $QCKPT &LOC
         $CHEK X,&LOC              INSURE ARGUMENT IS PRESENT
&NAME    $DECODE &LOC              GET ARGUMENT ADDRESS TO R1
         BAL   LINK,$QCKPT         LINK TO CONTROL SERVICE PROGRAM
         MEND
