         MACRO -- $QGET -- OBTAIN ELEMENT FROM HASP JOB QUEUE
&NAME    $QGET &CUE,&NONE,&NODETBL=                                  R4
         $CHEK X,&CUE              INSURE QUEUE TYPE PROVIDED
&NAME    $DECODE &CUE,&NODETBL     SET UP PARAMETER REGISTERS        R4
         BAL   LINK,$QGET          LINK TO CONTROL SERVICE PROGRAM
         $NPEXIT &NONE             SET UP NON-PROCESS EXIT
         MEND
