         MACRO -- $QLOC -- LOCATE ELEMENT IN HASP JOB QUEUE
&NAME    $QLOC &JOBNUM,&NONE
         $CHEK X,&JOBNUM           INSURE JOB NUMBER WAS PROVIDED
&NAME    $DECODE &JOBNUM,OPA=LH    SET UP JOB NUMBER IN R1
         BAL   LINK,$QLOC          LINK TO CONTROL SERVICE PROGRAM
         $NPEXIT &NONE             SET UP NON-PROCESS EXIT
         MEND
