         MACRO -- $QMOD -- MODIFY ELEMENT IN HASP JOB QUEUE
&NAME    $QMOD &LOC,&CUE
         $CHEK &LOC,&CUE           INSURE ARGUMENTS ARE PRESENT
&NAME    $DECODE &LOC,&CUE         LOAD ARGUMENTS TO R0 AND R1
         BAL   LINK,$QMOD          LINK TO CONTROL SERVICE PROGRAM
         MEND
