         MACRO -- $QPUT -- CHANGE STATUS OF HASP JOB QUEUE ELEMENT
&NAME    $QPUT &LOC,&CUE
         $CHEK &LOC,&CUE           INSURE ARGUMENTS WERE PROVIDED
&NAME    $DECODE &LOC,&CUE         SET UP ARGUMENTS IN R1 AND R0
         BAL   LINK,$QPUT          LINK TO CONTROL SERVICE PROGRAM
         MEND
