         MACRO -- $QUESMFB -- QUEUE SMF BUFFER ON $SMFBUSY
&NAME    $QUESMFB
&NAME    BAL   LINK,$QUESMFB       LINK TO CONTROL SERVICE PROGRAM
         MEND
