         MACRO -- $RESERVE -- REQUEST CHECKPOINT RESERVE       @OZ35278
&NAME    $RESERVE &DUMMY                                       @OZ35278
&NAME    L     R15,$RESERVA        GET ENTRY POINT ADDRESS     @OZ35278
         BALR  R14,R15             REQUEST CHECKPOINT RESERVE  @OZ35278
         MEND                                                  @OZ35278
