         MACRO -- $STIMER -- TIME A SPECIFIED INTERVAL
&NAME    $STIMER &LOC                                          @OZ40444
         $CHEK X,&LOC              INSURE HASP TQE ADDRESS WAS @OZ40444
&NAME    $DECODE &LOC              SET UP HASP TQE ADDRESS IN R@OZ40444
         L     R14,$STIMERA        LOAD ADDR OF $STIMER        @OZ40444
         BALR  R14,R14              AND LINK TO IT             @OZ40444
         MEND
