         MACRO -- $TIME -- GET TIME OF DAY
&NAME    $TIME
&NAME    TIME  BIN                 GET TIME OF DAY IN BINARY
         MEND
