         MACRO -- $TRACE -- GENERATE ENTRY IN HASP TRACE TABLE
&NAME    $TRACE
&NAME    $DECODE ,                 DEFINE LOCATION
         MEND
