         MACRO -- $TRACK -- GET A DIRECT ACCESS TRACK ADDRESS
&NAME    $TRACK &TRGPMAP,&WAIT=YES                                   R4
         $CHEK X,&TRGPMAP          INSURE TRACK GROUP MAP WAS PROVIDED
&NAME    $DECODE &TRGPMAP          SET UP TRACK GROUP MAP ADDRESS IN R1
         L     R15,$TRACK          GET TRACK ALLOCATION ROUTINE ADDR R4
         AIF   ('&WAIT' NE 'YES').A                                  R4
         BALR  LINK,R15             AND ENTER IT                     R4
         MEXIT                                                       R4
.A       BAL   LINK,0(,R15)         AND ENTER IT                     R4
         MEND                                                        R4
