         MACRO -- $TTIMER -- REQUEST TIME REMAINING / OPTIONALLY CANCEL
&NAME    $TTIMER &LOC,&CANCEL                                  @OZ40444
         $CHEK X,&LOC              INSURE HASP TQE ADDRESS WAS @OZ40444
&NAME    $DECODE &LOC              SET UP HASP TQE ADDRESS IN R@OZ40444
         AIF   ('&CANCEL' NE 'CANCEL').B                       @OZ40444
         LCR   R1,R1               COMPLEMENT TO INDICATE 'CANC@OZ40444
.B       L     R14,$TTIMERA        LOAD ADDR OF $TTIMER        @OZ40444
         BALR  R14,R14              AND LINK TO IT             @OZ40444
         MEND
