         MACRO -- $VFL -- VFL INSTRUCTION SIMULATION                 R4
&NAME    $VFL  &OP,&T,&F,&LEN                                        R4
         LCLA  &NDX                                                  R4
&NDX     SETA  0                                                     R4
         AIF   ('&OP' EQ 'NC').A                                     R4
&NDX     SETA  &NDX+6                                                R4
         AIF   ('&OP' EQ 'OC').A                                     R4
&NDX     SETA  &NDX+6                                                R4
         AIF   ('&OP' EQ 'XC').A                                     R4
&NDX     SETA  &NDX+6                                                R4
         AIF   ('&OP' EQ 'MVC').A                                    R4
         MNOTE 8,'VFL OPERATION NOT DEFINED'                         R4
         MEXIT                                                       R4
.A       ANOP                                                        R4
         $CHEK &T,&F                                                 R4
         $CHEK &LEN,&LEN                                             R4
&NAME    $DECODE &T,&LEN                                             R4
         $DECODE &F,RA=R15                                           R4
         AIF   (&NDX EQ 0).B                                         R4
         ICM   R1,8,=AL1(&NDX)     PROVIDE INSTRUCTION OFFSET        R4
         AGO   .C                                                    R4
.B       LA    R1,0(,R1)           PROVIDE INSTRUCTION OFFSET        R4
.C       AIF   ('&SYSECT' NE 'HASPSSSM').D                           R4
         L     R14,$SVVFL          POINT TO VFL INSTRUCTION ROUTINE  R4
         BALR  R14,R14              AND LINK TO IT                   R4
         MEXIT                                                       R4
.D       L     LINK,$VFL           POINT TO VFL INSTRUCTION ROUTINE  R4
         BALR  LINK,LINK            AND LINK TO IT                   R4
         MEND                                                        R4
