         MACRO -- $WAIT -- WAIT ON AN EVENT TO COMPLETE              R4
&NAME    $WAIT &EVENT,&INHIBIT=YES,&SAVE=YES,&REENTRY=               R4
         GBLC  &C                                                    R4
         GBLC  &S                                                    R4
         GBLB  &BRANCH                                               R4
         GBLB  &RESRC                                                R4
         GBLC  &EWF                                                  R4
&C       SETC  '&EVENT'                                              R4
&S       SETC  ''                                                    R4
&RESRC   SETB  0                                                     R4
&BRANCH  SETB  0                                                     R4
&EWF     SETC  '&C'                                                  R4
         AIF   ('&C' EQ 'POST' OR '&C' EQ 'OPER' OR '&C' EQ 'IO' OR '&CC
               ' EQ 'WORK' OR '&C' EQ 'HOLD').A                      R4
&RESRC   SETB  1                                                     R4
&EWF     SETC  'POST'                                                R4
.A       AIF   ('&SAVE' EQ 'NO').B                                   R4
&S       SETC  'S'                                                   R4
.B       AIF   ('&INHIBIT' EQ 'YES').C                               R4
&NAME    MVI   PCEEWF,0            SET NO INHIBITORS                 R4
         AGO   .D                                                    R4
.C       ANOP                                                        R4
&NAME    MVI   PCEEWF,$EWF&EWF     SET INHIBITOR                     R4
.D       AIF   ('&REENTRY' EQ '').E                                  R4
         $DECODE &REENTRY,OPA=L,RA=R15                         @OZ34898
&BRANCH  SETB  1                                                     R4
.E       AIF   (&RESRC EQ 0).H                                       R4
         AIF   ('&S' NE 'S').F                                       R4
         STM   LINK,BASE2,PCELINK  SAVE REGISTERS IN PCE             R4
.F       ANOP                                                        R4
         LA    R1,$EWQ&EVENT-(PCEPCEA-PCEDSECT) POINT TO PCE ZERO    R4
         AIF   (&BRANCH EQ 0).G                                      R4
         B     $WAITR              WAIT ON A RESOURCE                R4
         MEXIT                                                       R4
.G       ANOP                                                        R4
         BAL   R15,$WAITR          WAIT ON A RESOURCE                R4
         MEXIT                                                       R4
.H       AIF   (&BRANCH EQ 0).I                                      R4
         B     $WAIT&S             WAIT FOR SPECIFIC PCE POST        R4
         MEXIT                                                       R4
.I       ANOP                                                        R4
         BAL   R15,$WAIT&S         WAIT FOR SPECIFIC PCE POST        R4
         MEND                                                        R4
