         MACRO -- $XCTL -- BRANCH TO ANOTHER HASP SEGMENT
&NAME    $XCTL &SEG
         AIF   ('&SEG'(1,1) EQ '(').A
         AIF   (K'&SEG LT 5 OR K'&SEG GT 8).ERROR
         AIF   ('&SEG'(1,4) EQ 'HASP').A
.ERROR   MNOTE 8,'ILLEGAL HASP SEGMENT NAME'
         MEXIT
.A       ANOP
&NAME    L     LINK,PCERETN        LOAD RETURN ADDRESS
         AIF   ('&SEG'(1,1) EQ '(').B
         L     BASE3,=V(&SEG)      LOAD HASP SEGMENT ADDRESS
         AGO   .C
.B       ANOP
         L     BASE3,0(,&SEG(1))   LOAD HASP SEGMENT ADDRESS
.C       ANOP
         BR    BASE3                AND BRANCH TO IT
         MEND
