         MACRO -- NULL -- DEFINE A SYMBOL
&NAME    NULL
&NAME    DS    0H
         MEND
