./ ADD NAME=#BALR    0100-00038-00038-1646-00022-00022-00000-MACRO
         MACRO ,
&LABEL   #BALR &R1,&R2
.**********************************************************************
.*                                                                    *
.*       THIS MACRO IS USED TO GENERATE LINKAGE VIA A POINTER         *
.*       DEFINED VALUE.  IS SPLEVEL IS ONE, MVS/370 WILL BE CHECKED   *
.*       FOR AND A BALR USED INSTEAD OF BASSM IF 370 IS RUNNING.      *
.*                                                                    *
.**********************************************************************
         GBLC  &SYSSPLV                 SPLEVEL
         SPLEVEL TEST
         AIF   ('&SYSSPLV' EQ '1').LEVEL1
&LABEL   BASSM &R1,&R2                  MVS/XA LINKAGE
         MEXIT ,
.LEVEL1  ANOP  ,
&LABEL   L     &R1,16                   POINT TO CVT
         TM    116(&R1),128             MVS/XA ?
         BO    *+10
         BALR  &R1,&R2                  MVS/370 LINKAGE
         B     *+6
         BASSM &R1,&R2                  MVS/XA LINKAGE
         MEND  ,
./ ADD NAME=#BLANK   0100-00038-00038-1646-00037-00037-00000-MACRO
         MACRO ,
&NAME    #BLANK &F,&LEN=,&PAD=C' '
         LCLC  &L
         AIF   ('&F' EQ '').BLA0700   ERROR - MISSING FIELD
         AIF   ('&F'(1,1) EQ '(').BLA0100   FIELD IS A REGISTER
         AIF   ('&LEN' NE '').BLA0400   LENGTH SPECIFIED
&L       SETC  'L''&F'
&NAME    MVI   &F,&PAD
         MVC   &F+1(&L-1),&F
         MEXIT ,
.BLA0100 ANOP  ,
&NAME    LR    0,&F(1)                  R0 @ FIELD
         AIF   ('&LEN' NE '').BLA0200   LENGTH CODED
         LA    1,4095                   R1 HAS DEFAULT LENGTH
         AGO   .BLA0600                 CONTINUE
.BLA0200 AIF   ('&LEN'(1,1) EQ '(').BLA0300   LENGTH IS A REGISTER
         LA    1,&LEN                   R1 HAS LENGTH OF FIELD
         AGO   .BLA0600                 CONTINUE
.BLA0300 LR    1,&LEN(1)                R1 HAS LENGTH OF FIELD
         AGO   .BLA0600                 CONTINUE
.BLA0400 ANOP  ,
&NAME    LA    0,&F                     R0 @ FIELD
         AIF   ('&LEN'(1,1) EQ '(').BLA0500   LEN IS A REGISTER
         LA    1,&LEN                   R1 HAS LENGTH OF FIELD
         AGO   .BLA0600                 CONTINUE
.BLA0500 ANOP  ,
         LR    1,&LEN(1)                R1 HAS LENGTH OF FIELD
.BLA0600 ANOP  ,
         AIF   ('&PAD' EQ '0' OR '&PAD'  EQ 'X''00''').BLA0640
         LA    15,&PAD                  R15 HAS PAD CHARACTER
         SLL   15,24                    IN HIGH ORDER BYTE
         AGO   .BLA0660
.BLA0640 SR    15,15                    ZERO PAD AND LENGTH
.BLA0660 MVCL  0,14                     PROPOGATE PAD CHARACTER
         MEXIT ,
.BLA0700 MNOTE 8,'BLA001I - NO FIELD NAME SPECIFIED'
         MEND  .
./ ADD NAME=#BLKLEN  0100-00038-00038-1646-00038-00038-00000-MACRO
         MACRO ,
&NAME    #BLKLEN &DECB,&REG,&WKREG=R15,&ACSMETH=BSAM
         LCLC  &A,&B,&R,&O,&F
&O       SETC  '4'                 FLAG OFFSET FOR BSAM
&F       SETC  '128'               'S' FLAG FOR BSAM
         AIF   ('&ACSMETH' EQ 'BSAM' OR '&ACSMETH' EQ 'BPAM').BLK0100
         AIF   ('&ACSMETH' NE 'BDAM').BLK0600
&O       SETC  '5'                 FLAG OFFSET FOR BDAM
&F       SETC  '64'                'S' FLAG FOR BDAM
.BLK0100 ANOP  ,
.*
&R       SETC  '&REG'
         AIF   ('&REG' NE '').BLK0200
&R       SETC  'R1'
.*
.BLK0200 AIF   ('&DECB' EQ '').BLK0500
         AIF   ('&DECB'(1,1) EQ '(').BLK0300
&A       SETC  '&DECB+'
&B       SETC  ''
         AGO   .BLK0400
.BLK0300 ANOP  ,
&A       SETC  ''
&B       SETC  '&DECB'
.*
.BLK0400 ANOP  ,
&NAME    LH    &R,&A.6&B                GET BLKSIZE FROM DECB
         TM    &A.&O&B,&F               WAS 'S' CODED ON READ ?
         BZ    *+12                     YES, SKIP DCB STUFF
         L     &R,&A.8&B                GET DCB ADDRESS
         LH    &R,62(0,&R)              GET BLKSIZE FROM DCB
         L     &WKREG,&A.16&B           LOAD IOB ADDRESS
         SH    &R,14(0,&WKREG)          GET ACTUAL # BYTES READ
         MEXIT EXIT
.BLK0500 MNOTE 8,'BLK001A - DECB ADDRESS MISSING'
         MEXIT EXIT
.BLK0600 MNOTE 4,'BLK002A - INVALID ACCESS METHOD, BSAM ASSUMED'
         AGO   .BLK0100                 CONTINUE
         MEND  ,
./ ADD NAME=#CATRC   0100-00038-00038-1646-00224-00224-00000-MACRO
*---------------------------------------------------------------------*
* VSAM SETS ERROR CODES IN THE RPL AND THE ACB.  ERROR CODES SET IN   *
* THE RPL ARE LISTED AND EXPLAINED IN OS/VS VIRTUAL STORAGE ACCESS    *
* METHOD (VSAM) PROGRAMMER'S GUIDE AND IN OS/VS2 VSAM LOGIC.  THOSE   *
* SET IN THE ACB TO INDICATE OPEN,CLOSE, OR END OF VOLUME ERRORS ARE  *
* LISTED AND EXPLAINDED IN OS/VS2 VSAM LOGIC.                         *
*                                                                     *
* OS/VS2 CATALOG MANAGEMENT SETS ERROR AND REASON CODES IN CCAPROB.   *
* (FOR A DESCRIPTION OF THE CCA, SEE "CATALOG MANAGEMENT CONTROL      *
* BLOCK DESCRIPTIONS" IN THE "DATA AREAS" SECTION OF OS/VS2 CATALOG   *
* MANAGEMENT LOGIC.)  CCAPROB INCLUDES AN IDENTIFICATION OF THE       *
* CATALOG MANAGEMENT MODULE THAT SET THE CODE (CCAMODID), A REASON    *
* CODE (CCAREASN), AND A RETURN CODE (CCACD1), WICH APPEARS IN R15.   *
* COMPLETE EXPLANATIONS OF THE ERROR AND RETURN CODES, TOGETHER WITH  *
* THE APPROPRIATE PROGRAMMER RESPONSES ARE GIVEN IN THE DESCRIPTION   *
* OF MESSAGE IDC3009I IN OS/VS MESSAGE LIBRARY: VS2 SYSTEM MESSAGES.  *
* BRIEF DESCRIPTIONS OF THE RETURN CODES ARE GIVEN BELOW:             *
*---------------------------------------------------------------------*
         SPACE ,
RCS      EQU   0         OPERATION COMPLETED SUCCESSFULLY.
         SPACE ,
RCCAT    EQU   4         AN ERROR OCCURRED WHILE PERFORMING OPEN/CLOSE
*                        PROCESSING FOR A VSAM CATALOG OR A CATALOG
*                        RECOVERY AREA.  IF NO JOBCAT/STEPCAT DD
*                        STATEMENT WAS SUPPLIED, DYNAMIC ALLOCATION
*                        MAY HAVE FAILED BECAUSE THE VOLUME IS
*                        ALLOCATED EXCLUSIVELY.  THE VOLUME MAY BE
*                        ALLOCATED EXCLUSIVELY BECAUSE (1) THE DD
*                        STATEMENT SPECIFIED DEFERRED MOUNT, (2) THE
*                        VOLUME COUNT IS GREATER THAN THE UNIT COUNT
*                        ON THE DD STATEMENT, OR (3) A PREVIOUS ACCESS
*                        METHOD SERVICES COMMAND DEMOUNTED THE VOLUME
*                        AND CHANGED THE ALLOCATION OF THE VOLUME TO
*                        EXCLUSIVE.
         SPACE ,
RCENT    EQU   8         ENTRY DOES NOT EXIST, IF ACTION IS ONE THAT
*                        LOCATES AN ENTRY, OR ENTRY ALREADY EXISTS, IF
*                        ACTION IS ONE THAT ADDS AN ENTRY TO THE CATLG.
         SPACE ,
RCINSP   EQU   20        NOT ENOUGH SPACE IS AVAILABLE IN THE CATALOG
*                        DATASET.  ANOTHER EXTENT CANNOT BE OBTAINED,
*                        BECAUSE THERE IS NO MORE SPACE ON THE VOLUME
*                        IN WHICH THE CATALOG RESIDES OR THE MAXIMUM
*                        NUMBER OF EXTENTS HAS BEEN REACHED.
         SPACE ,
RCIOL    EQU   24        PERMANENT READ ERROR IN VSAM CATALOG.
         SPACE ,
RCIONL   EQU   28        PERMANENT I/O ERROR IN VSAM CATALOG.
         SPACE ,
RCINCPL  EQU   32        ERROR WAS DETECTED IN THE CATALOG PARAMETER
*                        LIST (CTGPL).
         SPACE ,
RCDSNF   EQU   36        DATASET WAS NOT FOUND.
         SPACE ,
RCVLSZ   EQU   40        VOLUME LIST OR WORK AREA IS TOO SMALL - THE
*                        REQUIRED LENGTH VALUE IS RETURNED IN THE
*                        FEEDBACK FIELD.
         SPACE ,
RCVLSM   EQU   44        WORK AREA IS TOO SMALL; SYSTEM IS UNABLE TO
*                        RETURN THE REQUIRED SIZE.
         SPACE ,
RCINFUNC EQU   48        OPERATION IS NOT A VALID ONE.
         SPACE ,
RCIOU    EQU   52        I/O ERROR WAS DETECTED ON A USER VOLUME.
*                        AN ATTEMPT TO MODIFY THE VTOC OF THE VOLUME
*                        ON WHICH A USER-SPECIFIED DATASET IS BEING
*                        DEFINED OR MODIFIED FAILED BECAUSE OF A READ
*                        OR WRITE ERROR.
         SPACE ,
RCSEC    EQU   56        PASSWORD IS INCORRECT.
         SPACE ,
RCINENT  EQU   60        CATALOG RECORD TYPE IS INVALID.
         SPACE ,
RCNAME   EQU   64        DATASEET OR INDEX CATALOG RECORD ASSOCIATED
*                        WITH THE CLUSTER OR ALTERNATE INDEX CATALOG
*                        RECORD WAS NOT FOUND.
         SPACE ,
RCNOSP   EQU   68        NO SPACE IS AVAILABLE ON A USER VOLUME.
         SPACE ,
RCNMNTD  EQU   72        USER VOLUME IS NOT MOUNTED.
         SPACE ,
RCNUNIT  EQU   76        UNIT IS NOT AVAILABLE FOR MOUNTING USER VOLUME
*                        OR VOLUME NOT MOUNTED.
         SPACE ,
RCRELOP  EQU   80        INVALID RELATED OBJECT.  THE OBJECT SPECIFIED
*                        IN THE RELATED PARAMETER OF THE DEFINE COMMAND
*                        DOES NOT EXIST OR IS IMPROPER FOR THE OBJECT
*                        BEING DEFINED.
         SPACE ,
RCDATE   EQU   84        PURGE DATE HAS NOT EXPIRED.
         SPACE ,
RCCRAOPC EQU   88        ERROR WITH A CATALOG RECOVERY AREA DEFINE
*                        OPERATION.
         SPACE ,
RCDSEXT  EQU   92        DATASET HAS REACHECK THE MAXIMUM NUMBER OF
*                        EXTENTS.
         SPACE ,
RCOBTAIN EQU   94        AN OS/VS DADSM OBTAIN REQUEST FAILED DURING
*                        A VSAM CATALOG DELETE REQUEST.
         SPACE ,
RCSPANCK EQU   96        ERROR IN SPECIFYING KEY LENGTH, KEY POSITION,
*                        OR RECORD SIZE FOR AN ALTERNATE INDEX OR A
*                        SPANNED CLUSTER.
         SPACE ,
RCRENAME EQU   98        AN UNUSUAL CONDITION OCCURRED DURING ALTER
*                        NAME OF A UNIQUE OR NONVSAM DATASET.
         SPACE ,
RCSCRTCH EQU   102       AN OS/VS DADSM SCRATCH REQUEST FAILED DURING
*                        A VSAM DELETE REQUEST FOR A UNIQUE OR NONVSAM
*                        DATASET.
         SPACE ,
RCCATEX  EQU   104       CATALOG EXISTS.
         SPACE ,
RCNTFMT4 EQU   106       A FMT-4 DSCB PROCESSING ERROR WAS ENCOUNTERED.
         SPACE ,
RCINFNAM EQU   108       FIELD NAME IS INVALID.
         SPACE ,
RCINFPL  EQU   112       FIELD PARAMETER LIST (CTGFL) CONTAINS
*                        INVALID PARAMETERS.
         SPACE ,
RCCATBAL EQU   116       CATALOG RECORDS ARE INVALID.
         SPACE ,
RCSYSFLD EQU   120       USER ATTEMPTED TO MODIFY A SYSTEM FIELD OR
*                        NONEXISTENT FIELD.
         SPACE ,
RCINCI   EQU   124       CONTROL INTERVAL NUMBER IS INVALID.
         SPACE ,
RCBLKVCK EQU   128       USER PROVIDED WORK AREA IS OUTSIDE HIS ADDRESS
*                        SPACE.
         SPACE ,
RCINPTR  EQU   132       POINTER IS NOT VALID.
         SPACE ,
RCMISPAR EQU   136       REQUIRED PARAMETER IS MISSING.
         SPACE ,
RCINCNPM EQU   140       SPECIFIED PARAMETERS ARE INCONSISTENT OR
*                        CONFLICTING.
         SPACE ,
RCINENTN EQU   144       ENTRY NAME IS INVALID.
         SPACE ,
RCVOLOWN EQU   148       VOLUME IS ALREADY OWNED BY ANOTHER VSAM CATLG.
         SPACE ,
RCDNECAT EQU   152       USER ATTEMPTED TO DELETE A CATALOG THAT IS NOT
*                        EMPTY.
         SPACE ,
RCNOSPSA EQU   156       NO SPACE AVAILABLE TO SUBALLOCATE.
         SPACE ,
RCVNDSPD EQU   160       DELETION OF SPACE OBJECT DID NOT CAUSE VOLUME
*                        TO BE DELETED.
         SPACE ,
RCINSSWA EQU   164       NOT ENOUGH STORAGE IS AVAILABLE FOR WORK AREA.
         SPACE ,
RCINVDTY EQU   168       SPECIFIED DEVICE-TYPE IS NOT SUPPORTED.
         SPACE ,
RCDUPNVL EQU   172       VOLUME HAS DUPLICATE DATA SPACE NAME.
         SPACE ,
RCNSPVTC EQU   176       NO SPACE AVAILABLE ON VTOC FOR DSCB.
         SPACE ,
RCDSNFND EQU   180       DATA SPACE WAS NOT FOUND.
         SPACE ,
RCDSO    EQU   184       DATA SET IS CURRENTLY OPEN, SO THE CATALOG
*                        RECORD CANNOT BE MODIFIED.
         SPACE ,
RCCATUNA EQU   188       THE CATALOG IS UNAVAILABLE.
         SPACE ,
RCMLRSZ  EQU   192       MAXIMUM LOGICAL RECORD LENGTH SPECIFIED IS
*                        GREATER THAN 32,761.
         SPACE ,
RCMCISZD EQU   196       DATA COMPONENT CONTROL INTERVAL SIZE SPECIFIED
*                        IS GREATER THAN 32,767.
         SPACE ,
RCMCISZI EQU   200       INDEX COMPONENT CONTROL INTERVAL SIZE
*                        SPECIFIED IS GREATER THAN 32,767.
         SPACE ,
RCKEYINC EQU   204       KEY EXTENDS BEYOND END OF RECORD.
         SPACE ,
RCBUFSIZ EQU   208       BUFFER SIZE IS TOO SMALL.
         SPACE ,
RCSIZCAL EQU   212       CONTROL INTERVAL SIZE CANNOT BE CALCULATED.
         SPACE ,
RCVTCBAL EQU   216       VOLUME'S VTOC IS INVALID.
         SPACE ,
RCDOSVTC EQU   220       DOS VTOC CANNOT BE CONVERTED TO OS/VS VTOC.
         SPACE ,
RCMXGRP  EQU   224       CATALOG RECORD HAS EXCEEDED THE MAXIMUM NUMBER
*                        OF SETS OF FIELDS ALLOWED.
         SPACE ,
RCTSAUTH EQU   226       TEST AUTHORIZATION FAILED.
         SPACE ,
RCLOCKER EQU   228       ERROR DETECTED IN THE TIME-OF-DAY CLOCK.
         SPACE ,
RCHIGH   EQU   230       VSAM CATALOG RETRIEVE OF THE CONTROL INTERVAL
*                        FAILED TO GET A LOW-RANGE RECORD FROM THE VSAM
*                        CATALOG.
         SPACE ,
RCSMFER  EQU   232       ERROR DETECTED IN SMF PROCESSING.
         SPACE ,
RCLEOD   EQU   234       END OF DATA ENCOUNTERED WHILE READING THE LOW
*                        DATA KEY RANGE OF THE VSAM CATALOG.
         SPACE ,
RCSPMAPE EQU   236       ERROR DETECTED IN SCANNING THE SPACE MAP.
         SPACE ,
RCNOUCEN EQU   238       NO USER CATALOG ENTRY IN THE MASTER CATALOG
*                        FOR CONVERT VOLUME PROCESSING.
         SPACE ,
RCINDER  EQU   240       REQUIRED DD STATEMENT MISSING.
         SPACE ,
RCEFRMPH EQU   242       A PHYSICAL I/O ERROR OCCURRED DURING AN ERASE
*                        OF THE DATASET BEING DELETED.
         SPACE ,
RCEF     EQU   244       ERASE OPERATION FAILED - DELETE OPERATION WAS
*                        NOT PERFORMED.
         SPACE ,
RCVOLENT EQU   248       THE VOLUME CATALOG RECORD (IDENTIFIED WITH A
*                        CALLER-SUPPLIED VOLUME SERIAL NUMBER) WAS NOT
*                        FOUND.
         SPACE ,
RCEFRM   EQU   250       VSAM RECORD MANAGEMENT FOUND A LOGICAL ERROR
*                        DURING ERASE PROCESSING WHILE DELETING A VSAM
*                        DATASET.
         SPACE ,
RCEE     EQU   252       ERROR WAS DETECTED, AND THE OPERATION WAS NOT
*                        COMPLETED.
         SPACE ,
RCBADE   EQU   400       ---------------------------------------------
./ ADD NAME=#CCW     0100-00038-00038-1646-00091-00091-00000-MACRO
         MACRO ,
         #CCW  &LIST=YES
         GBLB  &####CCW
         AIF   (&####CCW).MEND
&####CCW SETB  1
         AIF   ('&LIST' NE 'NO').BEGIN
         PUSH  PRINT
         PRINT OFF
.BEGIN   ANOP  ,
.*                    0 1 2 3  4 5 6 7
.*    FORMAT-0 CCW   CCAAAAAA FFXXKKKK
.*    FORMAT-1 CCW   CCFFKKKK AAAAAAAA
*
*        CCW FLAG BYTE MAPPING  (BITS 32-37 OR 8-15)
*
CD       EQU   B'10000000'   CHAIN DATA
CC       EQU   B'01000000'   CHAIN COMMAND
SLI      EQU   B'00100000'   SUPPRESS LENGTH INDICATION
SKIP     EQU   B'00010000'   SKIP
PCI      EQU   B'00001000'   PROGRAM CONTROLLED INTERRUPT
IDA      EQU   B'00000100'   INDIRECT DATA ADDRESS
SUSP     EQU   B'00000010'   SUSPEND
*
*        GENERAL COMMAND CODE MAPPING  (BITS 0-7)
*
WRITE    EQU   B'00000001'   WRITE
READ     EQU   B'00000010'   READ
NOP      EQU   B'00000011'   NO OPERATION
SENSE    EQU   B'00000100'   SENSE
SENSEID  EQU   B'11100100'   SENSE ID
TIC      EQU   B'00001000'   TRANSFER-IN-CHANNEL
*
*        TAPE COMMAND CODE MAPPING
*
RBACK    EQU   B'00001100'   READ BACKWARD
REW      EQU   B'00000111'   REWIND
RUN      EQU   B'00001111'   REWIND AND UNLOAD
ERG      EQU   B'00010111'   ERASE GAP
WTM      EQU   B'00011111'   WRITE TAPE MARK
BSB      EQU   B'00100111'   BACKSPACE BLOCK
BSF      EQU   B'00101111'   BACKSPACE FILE
FSB      EQU   B'00110111'   FORWARD SPACE BLOCK
FSF      EQU   B'00111111'   FORWARD SPACE FILE
DSE      EQU   B'10010111'   DATA SECURITY ERASE
M800     EQU   B'11001011'   9 TRACK, 800 BPI
M1600    EQU   B'11000011'   9 TRACK, 1600 BPI
M6250    EQU   B'11010011'   9 TRACK, 6250 BPI
*
*        DASD COMMAND CODE MAPPING
*
RECAL    EQU   B'00010011'   RECALIBRATE
SEEK     EQU   B'00000111'   FULL SEEK (BBCCHH)
SEEKC    EQU   B'00001011'   SEEK CYLINDER (00CCHH)
SEEKH    EQU   B'00011011'   SEEK HEAD (0000HH)
SPCNT    EQU   B'00001111'   SPACE COUNT
SFM      EQU   B'00011111'   SET FILE MASK
SSEC     EQU   B'00100011'   SET SECTOR
DEFEXT   EQU   B'01100011'   DEFINE EXTENT
LOCREC   EQU   B'01000111'   LOCATE RECORD
MT       EQU   B'10000000'   MUILITRACK ON (OR'ED WITH CMD CODE)
*
SHAEQ    EQU   B'00111001'   SEARCH HOME ADDRESS EQUAL (CCHH)
SIDEQ    EQU   B'00110001'   SEARCH ID EQUAL (CCHHR)
SIDHI    EQU   B'01010001'   SEARCH ID HIGH  (CCHHR)
SIDHEQ   EQU   B'01110001'   SEARCH ID HIGH OR EQUAL (CCHHR)
SKEQ     EQU   B'00101001'   SEARCH KEY EQUAL
SKHI     EQU   B'01001001'   SEARCH KEY HIGH
SKHEQ    EQU   B'01101001'   SEARCH KEY HIGH OR EQUAL
*
RHA      EQU   B'00011010'   READ HOME ADDRESS
DRHA     EQU   B'00001010'   DIAGNOSTIC READ HOME ADDRESS
RCT      EQU   B'00010010'   READ COUNT (CCHHRKDD)
RR0      EQU   B'00010110'   READ RECORD 0
RDT      EQU   B'00000110'   READ DATA
RKD      EQU   B'00001110'   READ KEY AND DATA
RCKD     EQU   B'00011110'   READ COUNT, KEY AND DATA
RMCKD    EQU   B'01011110'   READ MULTIPLE COUNT, KEY AND DATA
RSEC     EQU   B'00100010'   READ SECTOR
*
WHA      EQU   B'00011001'   WRITE HOME ADDRESS
DWHA     EQU   B'00001001'   DIAGNOSTIC WRITE HOME ADDRESS
WR0      EQU   B'00010101'   WRITE RECORD 0
WDT      EQU   B'00000101'   WRITE DATA
WKD      EQU   B'00001101'   WRITE KEY AND DATA
WCKD     EQU   B'00011101'   WRITE COUNT, KEY AND DATA
WSCKD    EQU   B'00000001'   WRITE SPECIAL COUNT, KEY AND DATA
ERASE    EQU   B'00010001'   ERASE
*
         AIF   ('&LIST' NE 'NO').MEND
         POP   PRINT
.MEND    MEND  ,
./ ADD NAME=#COPY    0100-00038-00038-1646-00083-00083-00000-MACRO
         MACRO ,
&LABEL   #COPY &FUNC,&BR=NO,&SIZE=,&WHO=,&YEAR=
.**********************************************************************
.*                                                                    *
.*     THIS MACRO IS USED TO INSERT THE NECESSARY COPYRIGHT           *
.*     NOTICE INTO BOTH THE LISTING AND THE OBJECT CODE.  NOTE        *
.*     THAT MNOTES PRINT REGARDLESS OF USE OF PRINT NOGEN.            *
.*                                                                    *
.*     THE MACRO HAS TWO FUNCTIONS, 'SET' AND 'GEN'.  'SET' IS        *
.*     USED TO ESTABLISH THE NAME OF THE COPYRIGHT HOLDER AND/OR      *
.*     SET THE GLOBAL &#COPYSZ FOR USE IN AN OUTER MACRO.  'GEN'      *
.*     IS CODED TO ACTUALLY GENERATE THE COPYRIGHT.  IF NEITHER       *
.*     IS CODED, 'GEN' IS ASSUMED.                                    *
.*                                                                    *
.**********************************************************************
         GBLA  &#COPY
         GBLA  &#COPYSZ                 TOTAL SIZE OF STRING IN BYTES
         GBLC  &#COPYYR                 YEAR OF COPYRIGHT
         GBLC  &#COPYWH                 NAME OF COPYRIGHT HOLDER
         LCLA  &N
         LCLC  &X,&Y
.*
&X       SETC  '&SYSDATC'(1,4)
         AIF   ('&YEAR' EQ '').NOYEAR
&#COPYYR SETC  '&YEAR'
.NOYEAR  ANOP  ,
.*
         AIF   ('&WHO' NE '').EXPLW     NAME CODED ?
         AIF   ('&#COPYWH' NE '').SIZE  FIRST TIME THRU ?
&#COPYWH SETC  'MVS-JES2@HOME.COM'      SET DEFAULT NAME
         AGO   .SIZE                    GO SET SIZE
.*
.EXPLW   ANOP  ,                        EXPLICIT NAME CODED
&#COPYSZ SETA  0                        MUST RESET SIZE
         AIF   ('&WHO'(1,1) NE '''').NOQUOTE
&N       SETA  K'&WHO-2                 STRIP APOSTROPHES
&#COPYWH SETC  '&WHO'(2,&N)
         AGO   .SIZE
.NOQUOTE ANOP  ,
&#COPYWH SETC  '&WHO'                   UNQUOTED EXPLICIT NAME
.*
.SIZE    AIF   ('&SIZE' NE '').EXPL     IS SIZE CODED ?
         AIF   (&#COPYSZ NE 0).FUNC
&#COPYSZ SETA  ((42+K'&#COPYWH+1)/2)*2  EVEN DEFAULT SIZE
         AGO   .FUNC
.EXPL    ANOP  ,
&#COPYSZ SETA  ((&SIZE+1)/2)*2          ROUNDED EXPLICIT SIZE
.*
.FUNC    ANOP  ,
         AIF   (&#COPY NE 0).FUNC1
&#COPY   SETA  1
         AIF   ('&#COPYYR' NE '').YEAROK
&#COPYYR SETC  '1985, &X'
&#COPYSZ SETA  &#COPYSZ+6
         AGO   .FUNC1
.YEAROK  ANOP  ,
         AIF   ('&#COPYYR' EQ '&X').FUNC1
&#COPYYR SETC  '&#COPYYR., &X'
&#COPYSZ SETA  &#COPYSZ+6
.FUNC1   ANOP  ,
         AIF   ('&FUNC' EQ 'SET').MEND
         AIF   ('&FUNC' EQ '' OR '&FUNC' EQ 'GEN').GEN
         MNOTE 4,'INVALID FUNCTION &FUNC, GEN ASSUMED'
.*
.GEN     ANOP  ,                        GENERATE THE COPYRIGHT
         AIF   ('&BR' EQ 'NO').NOBR     BRANCH NEEDED ?
&N       SETA  &#COPYSZ+4
         B     *+&N                     BR AROUND COPYRIGHT NOTICE
.NOBR    ANOP  ,
*
         MNOTE '*        (C) COPYRIGHT &#COPYYR &#COPYWH.'
         MNOTE '*        PROGRAM PROPERTY OF &#COPYWH.'
         MNOTE '*        ALL RIGHTS RESERVED.'
 MNOTE '*        NO PART OF THIS PROGRAM MAY BE REPRODUCED, STORED'
 MNOTE '*        IN A RETRIEVAL SYSTEM OR TRANSMITTED IN ANY FORM'
 MNOTE '*        OR BY ANY MEANS, INCLUDING PHOTOCOPYING, RECORDING,'
 MNOTE '*        ELECTRONIC, MECHANICAL OR OTHERWISE WITHOUT THE'
 MNOTE '*        WRITTEN CONSENT OF THE COPYRIGHT HOLDER.'
*
&N       SETA  &#COPYSZ-22
&LABEL   DC    CL&N.' (C) COPYRIGHT &#COPYYR &#COPYWH  '
         DC    CL22' ALL RIGHTS RESERVED.'
.MEND    MEND  ,
./ ADD NAME=#CTGFL   0100-00038-00038-1646-00196-00196-00000-MACRO
         MACRO ,
&NAME    #CTGFL &FLDNAME,               NAME OF CTGFL TO BE BUILT      X
               &DATA=,                  ADDR OF DATA FOR FIELD         X
               &CHAIN=,                 ADDR OF CTGFL FOR TESTS        X
               &TYPE=REQUEST,           TYPE OF CTGFL (TEST OR REQ)    X
               &MF=L,                   MACRO FORMAT (LIST OR EXEC)    X
               &GROUP=,                 GROUP CODE OF FIELD            X
               &PREFIX=CTG              PREFIX FOR LABEL GENERATION
.*
.* DEFINE LOCAL SET SYMBOLS
.*
         LCLA  &I                       LOOP COUNTER
         LCLB  &REQ                     =1 IF THIS IS A REQUEST TYPE
         LCLB  &TST                     =1 IF THIS IS A TEST TYPE
         LCLC  &NOENT                   SET TO NUMBER OF FIELDS
         LCLC  &COND                    SET TO HEX VALUE FOR TEST
         LCLC  &CTBL(19)                TABLE TO TRANSLATE TEST CONDS
         LCLC  &LABEL                   DEFINITION OF LABEL
         LCLC  &IX                      SET TO &SYSNDX VALUE
         LCLC  &REG                     USED WHEN REG ADDR SPECD
.*
.* INITIALIZE SET SYMBOLS TO NONSTANDARD DEFAULTS
.*
&NOENT   SETC  '01'                     1 ENTRY IF NOT MULTITYPE
&IX      SETC  '&SYSNDX'                INITIALIZE SHORT INDEX
&LABEL   SETC  '&PREFIX'(1,4)           ONLY USE FOUR CHARS FROM PREF
&LABEL   SETC  '&LABEL.&IX'             GENERATE A UNIQUE LABEL
.*
&CTBL(1) SETC  'EQ'                     --+
&CTBL(2) SETC  'NE'
&CTBL(3) SETC  'GT'
&CTBL(4) SETC  'LT'
&CTBL(5) SETC  'GE'
&CTBL(6) SETC  'LE'                     THIS TABLE PROVIDES
&CTBL(7) SETC  'Z'
&CTBL(8) SETC  'ON'                     A REFERENCE TO DETERMINE
&CTBL(9) SETC  'MX'
&CTBL(11) SETC 'CTGFLDEQ'               TEST CONDITIONS FROM
&CTBL(12) SETC 'CTGFLDNE'
&CTBL(13) SETC 'CTGFLDGT'               INPUT MNEMONICS
&CTBL(14) SETC 'CTGFLDLT'
&CTBL(15) SETC 'CTGFLDGE'
&CTBL(16) SETC 'CTGFLDLE'
&CTBL(17) SETC 'CTGFLDZ'
&CTBL(18) SETC 'CTGFLDON'
&CTBL(19) SETC 'CTGFLDMX'               --+
.*
.*  PARSE THE FIELDNAME PARAMETER
.*
.FLD1    ANOP  ,
         AIF   ('&FLDNAME' EQ '').ERR1   ERROR IF NO FIELDNAME
         AIF   ('&FLDNAME' NE 'MULTITYP').FEND
&NOENT   SETC  '04'                     MULTITYP HAS 4 ENTRIES
.FEND    ANOP  ,
.*
.*  PARSE THE TYPE PARAMETER
.*
.TYPE1   ANOP  ,
         AIF   (N'&TYPE NE 1).TYPE2      CHECK FOR REQUEST TYPE
         AIF   ('&TYPE' NE 'REQUEST').ERR2
&REQ     SETB  1                         SET REQUEST TYPE FLAG
         AGO   .TEND                    END OF TYPE PARSE
.TYPE2   AIF   (N'&TYPE NE 2).ERR2       CHECK FOR (TEST,COND) TYPE
         AIF   ('&TYPE(1)' NE 'TEST').ERR2
&TST     SETB  1                         SET TEST TYPE FLAG
&I       SETA  1                        SET UP TO SEARCH COND TABLE
.TYPE3   AIF   ('&TYPE(2)' EQ '&CTBL(&I)').TYPE4   FOUND MNEMONIC
&I       SETA  &I+1                     INCREMENT COUNTER
         AIF   (&I GT 9).ERR5            MNEMONIC NOT FOUND => ERROR
         AGO   .TYPE3                   KEEP SEARCHING
.TYPE4   ANOP  ,
&I       SETA  &I+10                    INDEX INTO HEX CODE TABLE
&COND    SETC  '&CTBL(&I)'              SET COND CODE HEX VALUE
.TEND    ANOP  ,
.*
.*  PARSE THE DATA PARAMETER
.*
.DATA1   ANOP  ,
         AIF   ('&DATA' EQ '').DEND      CHECK IF DATA SUPPLIED
         AIF   (N'&DATA NE 2).ERR3       CHECK IF DATA VALID
.DEND    ANOP  ,
.*
.*  PARSE THE MF PARAMETER
.*
.MF1     ANOP  ,
         AIF   (N'&MF NE 1).MF2          CHECK FOR MF=?
         AIF   ('&MF' NE 'L').ERR4       NOT MF=L => ERROR
         AGO   .LFORM1                  PRODUCE LIST FORM OF CTGFL
.MF2     AIF   (N'&MF NE 2).ERR4         MF NOT (?,?) => ERROR
         AIF   ('&MF(1)' NE 'E').ERR4    MF NOT (E,?) => ERROR
         AGO   .EFORM1                  PRODUCE EXECUTE FORM OF CTGFL
.MEND    ANOP  ,
.*
.* GENERATE THE LIST FORM OF THE CTGFL
.*
.LFORM1  ANOP  ,
&NAME    DS    0F                       #CTGFL MACRO JAN 21 1980
         DC    X'&NOENT'                NO OF LEN/ADDR ENTRIES
         AIF   (&TST).LFORM2             FILL IN CONDITION FIELD
         DC    X'00'                    NOT A TEST CTGFL
         AGO   .LFORM3                  CONTINUE WITH CTGFL
.LFORM2  ANOP  ,
         DC    AL1(&COND)               TEST CONDITION
.LFORM3  ANOP  ,
         AIF   ('&GROUP' EQ '').LFORM4   NO GROUP CODE SPECD
         DC    C'&GROUP'                TYPE (GROUP) CODE
         AGO   .LFORM5
.LFORM4  ANOP  ,
         DS    C                        RESERVED
.LFORM5  ANOP  ,
         DS    X                        TEST RESULTS
         DS    XL4                      WORKAREA
         DC    A(&LABEL)                ADDR OF FIELDNAME
         AIF   ('&CHAIN' EQ '').LFORM6   NO CHAIN SPECIFIED
         DC    A(&CHAIN)                ADDR OF CTGFL FOR TESTS
         AGO   .LFORM7
.LFORM6  ANOP  ,
         DS    A                        RESERVED
.LFORM7  ANOP  ,
         AIF   ('&DATA' NE '').LFORM8    NO DATA SPECIFIED
&I       SETA  &NOENT*2                 NUMBER OF WORDS FOR DATA
         DS    &I.A                     LEN/ADDR OF DATA
         AGO   .LFORM9
.LFORM8  DC    A(&DATA(2))              DATA LENGTH
         DC    A(&DATA(1))              DATA ADDRESS
         AIF   ('&NOENT' EQ '01').LFORM9   NOT A MULTITYP CTGFL
         DS    6A                       LEN/ADDR FOR MULTITYP
.LFORM9  ANOP  ,
&LABEL   DC    CL8'&FLDNAME'            NAME OF THE FIELD
         MEXIT ,
.*
.* GENERATE THE EXECUTE FORM OF THE CTGFL MACRO
.*
.EFORM1  ANOP  ,
         PUSH  USING                    #CTGFL MACRO JAN 21 1980
         USING CTGFL,15                 ADDRESS THE CTGFL
         AIF   ('&MF(2)'(1,1) EQ '(').EREGS   TEST IF REG SPECD
&NAME    LA    15,&MF(2)                REG 1 -> CTGFL
         AGO   .EBLD                    GO BUILD PARM LIST
.EREGS   ANOP  ,
&REG     SETC  '&MF(2)'(2,K'&MF(2)-2)   STRIP THE PARENTHESIS
&NAME    LR    15,&REG                  REG 1 -> CTGFL
.EBLD    ANOP  ,
         MVI   CTGFLDNO,X'&NOENT'       NUMBER OF ENTRIES
         AIF   (NOT &TST).EFORM3              NOT BUILDING A TEST CTGFL
         MVI   CTGFLDCD,&COND           TEST CONDITION
.EFORM3  AIF   ('&GROUP' EQ '').EFORM4        NO GROUP CODE SPECIFIED
         MVI   CTGFLDGC,C'&GROUP'       TYPE (GROUP) CODE
.EFORM4  ANOP  ,
         AIF   ('&FLDNAME'(1,1) EQ '(').FLDREG   TEST IF REG SPECD
         LA    0,=CL8'&FLDNAME'         SAVE ADDRESS OF
         ST    0,CTGFLDNM               THE FIELD NAME
         AGO   .ECHAIN
.FLDREG  ANOP  ,
&REG     SETC  '&FLDNAME'(2,K'&FLDNAME-2) STRIP THE PARANTHESIS
         ST    &REG,CTGFLDNM            SAVE FIELD NAME ADDRESS
.ECHAIN  ANOP  ,
         AIF   ('&CHAIN' EQ '').EFORM5        NO CHAIN CTGFL
         AIF   ('&CHAIN'(1,1) EQ '(').ECREG   CHAIN SPECD BY REG
         LA    0,&CHAIN                 SAVE ADDRESS OF
         ST    0,CTGFLCHN               THE CTGFL FOR TESTS
         AGO   .EFORM5
.ECREG   ANOP  ,
&REG     SETC  '&CHAIN'(2,K'&CHAIN-2)   GET RID OF PARENS
         ST    &REG,CTGFLCHN            SET PTR TO CTGFL FOR TEST
.EFORM5  AIF   ('&DATA' EQ '').EFORM7         NO DATA POINTERS
         AIF   ('&DATA(2)'(1,1) EQ '(').EDREG2   LENGTH SPECD BY REG
         LA    0,&DATA(2)               SAVE THE LENGTH
         ST    0,CTGFLNG                OF THE FIELD DATA
         AGO   .EFORM6
.EDREG2  ANOP  ,
&REG     SETC  '&DATA(2)'(2,K'&DATA(2)-2) GET RID OF PARENS
         ST    &REG,CTGFLNG             SET DATA LENGTH
.EFORM6  AIF   ('&DATA(1)'(1,1) EQ '(').EDREG1   ADDR SPECD BY REG
         LA    0,&DATA(1)               SAVE THE ADDRESS
         ST    0,CTGFLPT                OF THE FIELD DATA
         AGO   .EFORM7
.EDREG1  ANOP  ,
&REG     SETC  '&DATA(1)'(2,K'&DATA(1)-2) GET RID OF PARENS
         ST    &REG,CTGFLPT             SET POINTER TO DATA
.EFORM7  ANOP  ,
         POP   USING
         MEXIT ,
.*
.* ERROR MESSAGES ISSUED FROM THIS MACRO
.*
.ERR1    MNOTE 8,'NO FIELD NAME SPECIFIED'