         MACRO
&NAME    XHEXI &REG,&ADDR
.*                                                                    *
.*-->MACRO: XHEXI  HEXADECIMAL INPUT CONVERSION MACRO.                *
.*                                WRITTEN BY ALAN ARTZ 4/17/72        *
.*       THIS MACRO TAKES THE VALUE STARTING AT THE ADDRESS GIVEN BY  *
.*  &ADDR AND CONVERTS IT AND PUTS THE HEXADECIMAL VALUE IN &REG.     *
.*  IF THERE ARE MORE THAN 8 DIGITS, R1 POINTS TO THE 9TH AND THE     *
.*  FIRST 8 ARE CONVERTED.  IF THERE IS A NON-BLANK, NON-HEX DIGIT    *
.*  FOUND, R1 POINTS TO THAT CHARACTER AND THE CC=3, OTHERWISE CC SET *
.*  BY VALUE IN REG.                                                  *
.*                                                                    *
.*       CALLS MODULE XXXXHEXI TO DO THE ACTUAL CONVERSIONS           *
.*                                                                    *
.**********************************************************************
         LCLC  &LABEL
&LABEL   SETC  'XX&SYSNDX.H'      UNIQUE LABEL
&NAME    STM   14,0,&LABEL  .      SAVE REGISTERS
         ST    &REG,&LABEL+12  .  REGISTER STORE INCASE OF OVERFLOW CND
         LA    0,&ADDR  .         GET STRING TO BE CONVERTED
         CNOP  2,4  .              GET PROPER ALIGNMENT
         L     15,&LABEL-4  .     ADDRESS OF XXXXHEXI
         BALR  14,15  .            GO TO APPROPRIATE PLACE
         DC    V(XXXXHEXI)  .      VCON OF ROUTINE
&LABEL   DS    4F  .              STORAGE FOR REGISTERS
         LM    14,0,4(14)  .       RESTORE REGISTERS
         L     &REG,&LABEL+12  .  GET CONVERTED NUMBER
         MEND
