         MACRO
&NAME    XHEXO &REG,&ADDR
         LCLC  &LABEL
.*                                                                    *
.*-->MARCO: XHEXO  HEXADECIMAL OUTPUT CONVERSION MACRO                *
.*                                WRITTEN BY ALAN ARTZ 4/17/72        *
.*       THIS MACRO TAKES THE VALUE IN & REG AND CONVERTS IT TO       *
.*  PRINTABLE FORM.                                                   *
.*       IT PUTS THE CONVERTED VALUE IN AN EIGHT BYTE AREA STARTING AT*
.* THE ADDRESS GIVEN IN &ADDR.                                        *
.*      THE CONDITION CODE IS NOT CHANGED AND NETHER ARE THE REGISTERS*
.*                                                                    *
.*       CALLS MODULE XXXXHEXO TO DO THE ACTUAL CONVERSIONS.          *
.*                                                                    *
.**********************************************************************
&LABEL   SETC  'XX&SYSNDX.H'      UNIQUE LABEL
&NAME    DS    0H
         STM   14,0,&LABEL  .      SAVE REGIST5RS
         ST    &REG,&LABEL+12  .    SAVE REGISTER
         LA    0,&ADDR   .        PASS REGISTER TO XXXXHEXO
         CNOP  2,4  .              GDT PROPER ALIGNMENT
         L     15,&LABEL-4  .     ADDRESS OF XXXXHEXO
         BALR  14,15  .            CALL HEXO
         DC    V(XXXXHEXO)
&LABEL   DS    4F  .              STORAGE FOR REGISTERS
         LM    14,0,&LABEL  .     RESTORE REGISTERS
         MEND
