         MACRO
&NAME    EDIT  &TO=,&FROM=,&MASK=
.*
.*             MACRO-ID. 'EDIT'.
.*             AUTHOR.   DON HIGGINS.
.*             DATE WRITTEN.  07/18/70.
.*             REMARKS.
.*                  FUNCTION - GENERATE MASK AND/OR INSTRUCTIONS TO
.*                             EDIT PACKED DECIMAL DATA FOR PRINTING.
.*                  OPERANDS
.*                   TO=   LABEL OF DISPLAY FIELD INTO WHICH THE EDITED
.*                         DATA WILL BE PLACED IF SPECIFIED.
.*                   FROM= LABEL OF PACKED DECIMAL DATA TO BE EDITED
.*                         IF SPECIFIED.
.*                   MASK= STRING OF UP TO 48 CHARACTERS IN SINGLE
.*                         QUOTES DEFINING EDIT MASK SIMILAR
.*                         TO A COBOL PICTURE.  THIS OPERAND IS
.*                         REQUIRED.  IF THE OTHER TWO OPERANDS ARE NOT
.*                         DEFINED, A DC WITH THE DESIRED MASK IS
.*                         GENERATED.  SPECIAL EDIT CHARACTERS ARE AS
.*                         FOLLOWS:
.*                            Z - DIGIT SELECT WITH ZERO SURPRESSION
.*                            9 - DIGIT SELECT WITHOUT ZERO SURPRESSION
.*                            F - FIELD SELECT RESETS SIGNIFICANCE TO
.*                                ALLOW MULTIPLE FIELD EDITING
.*                            $ - DIGIT SELECT WITH ZERO SURPRESSION
.*                                AND FLOATING DOLLAR SIGN.
.*                  NOTES:
.*                   1.  THE FIRST MASK CHARACTER IS USED AS THE FILL
.*                       CHARACTER IN ALL FIELDS.
.*                   2.  THE FOLLOWING EXAMPLE WOULD EDIT BOTH THE TIME
.*                       AND DATE OBTAINED USING THE TIME MACRO
.*                            .
.*                            TIME DEC
.*                            STM  0,1,PDATA
.*                            EDIT TO=LINE+10,FROM=PDATA,
.*                                 MASK=' 99/99/99.99F ZZ99.999'
.*                            .
.*                       PDATA DS  2F     (HHMMSSTH00YYDDDC)
.*                       LINE  DC  CL133' '
.*                            .
.*                   3.  THE FOLLOWING EXAMPLE WOULD GENERATE A DC
.*                       LABELED MASKPAY TO BE USED AS A MASK FOR
.*                       EDITING DIFFERENT FILEDS.
.*                            .
.*                       MASKPAY   EDIT MASK=' Z,ZZZ,ZZ9.99 CR'
.*                            .
.*                   4.  THE MASK CHARACTERS DETERMINE EXPLICIT LENGTH.
.*                   5.  MULTIPLE FIELDS CANNOT CONTAIN FLOATING
.*                       DOLLAR SIGNS.
.*
         LCLA  &LMASK,&SIGNF,&NEXT,&FIELDS,&FLOAT
         LCLC  &C,&C1,&C2,&C3,&C4,&C5,&C6
         AIF   (T'&MASK NE 'U').BADMASK
&LMASK   SETA  K'&MASK-2
         AIF   (&LMASK GT 48).BADMASK
         AIF   (&LMASK LT 1).BADMASK
         AIF   ('&MASK'(1,1) NE '''').BADMASK
         AIF   ('&MASK'(&LMASK+2,1) NE '''').BADMASK
.LOOP    ANOP
&NEXT    SETA  &NEXT+1
         AIF   (&NEXT GT &LMASK).GEN
&C       SETC  '&MASK'(&NEXT+1,1)
         AIF   ('&C' EQ '9').NINE
         AIF   ('&C' EQ 'Z').ZZZZ
         AIF   ('&C' EQ '$').DOLLAR
         AIF   ('&C' EQ 'F').FIELD
.AD1     AIF   ('&C1' GT '9999999').AD2
&C1      SETC  '&C1&C'
         AGO   .LOOP
.AD2     AIF   ('&C2' GT '9999999').AD3
&C2      SETC  '&C2&C'
         AGO   .LOOP
.AD3     AIF   ('&C3' GT '9999999').AD4
&C3      SETC  '&C3&C'
         AGO   .LOOP
.AD4     AIF   ('&C4' GT '9999999').AD5
&C4      SETC  '&C4&C'
         AGO   .LOOP
.AD5     AIF   ('&C5' GT '9999999').AD6
&C5      SETC  '&C5&C'
         AGO   .LOOP
.AD6     AIF   ('&C6' GT '9999999').BADMASK
&C6      SETC  '&C6&C'
         AGO   .LOOP
.NINE    AIF   (&SIGNF EQ 0).SETSIG
.ZZZZ    ANOP
&C       SETC  '½'       (11-0-1-8-9)=X'20'  DIGIT SELECT
         AGO   .AD1
.DOLLAR  ANOP
&FLOAT   SETA  1
         AGO   .ZZZZ
.FIELD   ANOP
&C       SETC  ''       (0-2-9)=X'22'       FIELD SELECT
&SIGNF   SETA  0
&FIELDS  SETA  1
         AGO   .AD1
.SETSIG  ANOP
&C       SETC  'À'       (0-1-9)=X'21'       SIGNIFICANCE STARTER
&SIGNF   SETA  &NEXT
         AGO   .AD1
.GEN     AIF   (T'&TO EQ 'O').GENDC
         AIF   (T'&FROM EQ 'O').BADFROM
         AIF   (&FLOAT EQ 1).GENFL
&NAME    MVC   &TO.(&LMASK.),=CL&LMASK.'&C1&C2&C3&C4&C5&C6'
         ED    &TO.(&LMASK.),&FROM
         MEXIT
.GENDC   AIF   (T'&FROM NE 'O').BADTO
&NAME    DC    CL&LMASK.'&C1&C2&C3&C4&C5&C6'
         MEXIT
.GENFL   AIF   (&FIELDS NE 0).BADMIX
         AIF   (&SIGNF  GT 0).GENLA
&NAME    LA    1,1
         MVC   &TO.(&LMASK.),=CL&LMASK.'&C1&C2&C3&C4&C5&C6'
         EDMK  &TO.(&LMASK.),&FROM
         BCT   1,*+8
         B     *+8
         MVI   0(1),C'$'
         MEXIT
.GENLA   ANOP
&NAME    LA    1,&TO.+&SIGNF
         MVC   &TO.(&LMASK.),=CL&LMASK.'&C1&C2&C3&C4&C5&C6'
         EDMK  &TO.(&LMASK.),&FROM
         BCTR  1,0
         MVI   0(1),C'$'
         MEXIT
.BADMIX  MNOTE 0,'MULTIPLE FIELDS CANNOT CONTAIN FLOATING DOLLAR SIGNS'
         MEXIT
.BADMASK MNOTE 0,'INVALID MASK (1-48 CHARACTERS IN SINGLE QUOTES)'
         MEXIT
.BADTO   MNOTE 0,'MISSING TO FIELD'
         MEXIT
.BADFROM MNOTE 0,'MISSING FROM FIELD'
         MEXIT
         MEND
*          DATA SET AM000700   AT LEVEL 001 AS OF 01/11/73
