         MACRO
&NAME    FIX   &RF,&RI,&TEMP       CONVERT FLOATING TO FIXED
.*       FIX   &RF,&RI,&TEMP       TAKES FLOATING POINT NUMBER IN &RF
.*                 AND CONVERTS TO FIXED POINT NUMBER IN &RI, USING
.*                 0D ALIGNED WORK SPACE &TEMP  DS  D.
         LER   R0,&RF              F
         AW    R0,=X'4E00000000000000'   UN-NORMALIZE
         STD   R0,&TEMP
         L     &RI,&TEMP+4         ×I×
         LTDR  R0,R0               WAS IT NEGATIVE?
         BNL   *+6                 NO.
         LNR   &RI,&RI             YES - MAKE NEGATIVE.
         MEND
