         MACRO
&NAME    FLOAT &RI,&RF,&TEMP
.*       FLOAT &RI,&RF,&TEMP       TAKES FIXED POINT NUMBER IN &RI
.*                 AND CONVERTS TO FLOATING POINT NUMBER IN
.*                 FLOATING  REGISTER &RF, USING 0D ALIGNED
.*                 WORK SPACE &TEMP  DS  D.
         LR    R0,&RI              I
         LPR   R1,&RI              ×I×
         XC    &TEMP.(4),&TEMP     CLEAR HIGH-ORDER HALF
         MVI   &TEMP,X'4E'         EXPONENT
         ST    R1,&TEMP+4          INTEGER IN LOW-ORDER HALF
         SDR   R0,R0               CLEAR FLOATING R0
         AD    R0,&TEMP            NORMALIZE
         LTR   R0,R0               TEST SIGN OF I
         BNL   *+6
         LCDR  R0,R0               COMPLEMENT IF I<0
         LER   &RF,R0              RESULT
         MEND
