         MACRO
&SECT    PLIXSET   &REGS=YES,&LAST=R11,&BASE=R11
.*
.* THIS MACRO SETS UP EQUATES AND REGISTER DEFINITIONS FOR THE
.* PLIXDENT - PLIXEXT MACROS (WHICH ARE ENTRY - EXIT MACROS THAT
.* ALLOW ASSEMBLER ROUTINES TO BE CALLED BY PLIX).
.* USE MACRO PLIXDSA TO MAP THE DSA.
.*       &LAST: THE HIGHEST REGISTER USED BY THIS ROUTINE.
.* PLIXDENT WILL SAVE R14-&LAST.
.*       &BASE: THE BASE REGISTER TO BE ESTABLISHED ON ENTRY.
.* DO NOT USE R12 OR R13 FOR THE BASE REG.
.* APB - 08/31/79
.*
         GBLC  &NAME,&RLAST,&RBASE
&NAME    SETC  '&SECT'
&RLAST   SETC  '&LAST'
&RBASE   SETC  '&BASE'
         AIF   ('&NAME' NE '').NOTNULL
&NAME    SETC  'PLIXSECT'
.NOTNULL ANOP
&NAME    CSECT                     NAME OF PLIX CSECT
         SPACE
         AIF   ('&REGS' EQ 'NO').NOREGS
         REGS
         SPACE
.NOREGS  ANOP
RTCA     EQU   12                  TASK COMMUNICATIONS AREA POINTER
RDSA     EQU   13                  DYNAMIC STORAGE AREA POINTER
*
* OFFSETS IN PL/I CONTROL BLOCKS
*
D@LWS    EQU   72                  IN DSA: A(LIBRARY WORKSPACE)
D@NAB    EQU   76                          A(NEXT AVAILABLE BYTE)
D@BEC    EQU   84                          BLOCK ENABLE CELL
D@CEC    EQU   86                          CURRENT ENABLE CELL
D@SB     EQU   88                          STATIC BACKCHAIN
T@TEOS   EQU   12                  IN TCA: A(END OF LIFO SEGMENT)
T@TOVF   EQU   116                         A(IBMBPGR), ROUTINE TO
*                                          GET NEW LIFO SEGMENT
PLIXGETM EQU   X'6C'                       A(CORE ALLOCATE ROUTINE)
PLIXFREM EQU   X'70'                       A(CORE FREE ROUTINE)
         SPACE
         MEND
