         MACRO
&NAME    PSECT
&NAME    CSECT
         YREGS
         USING *,R15
         SAVE  (14,12),,&NAME
         CNOP  0,4
         BAL   R11,N&SYSNDX
SAVEAREA DS    18F
N&SYSNDX ST    R11,8(,R13)    SAVE THIS SAVEAREA
         ST    R13,4(,R11)    SAVE PTR TO CALLER'S SAVE AREA
         LR    R13,R11        LOAD SAVE AREA PTR
         MVI   0(R13),X'80'   SET PLI FLAG
         DROP  R15
         USING SAVEAREA,R13
         MEND
