         MACRO
&NAME    RSECT &BASE=R12,&LENGTH=72
         GBLC  &RSECTL
         GBLA  &REGS
&RSECTL SETC '&LENGTH'
&NAME    CSECT
         AIF   (&REGS NE 0).NOREG
&REGS    SETA  1
         YREGS
.NOREG   STM   R14,R12,12(R13)     STORE CALLER'S REGS
         BALR  &BASE,0             ADDRESSABILITY
         USING *,&BASE               **
         LA    R0,&RSECTL          GETMAIN A SAVE AREA
         GETMAIN R,LV=(0)            **
         ST    R1,8(R13)           LINK SAVE AREAS TOGETHER
         ST    R13,4(R1)             **
         LR    R15,R13             SAVE FOR RESTORE OF R0+R1
         LR    R13,R1              A(SAVE AREA) TO R13
         LM    R15,R1,16(R15)      RESTORE REGISTERS
         MEND
