         MACRO
&NAME    SCVT  &TYPE=TRN
.*0018012000                                                       RORI
&NAME    DS    0F
         AIF   ('&TYPE' EQ 'RES').NEXT1
SCVTPGTM DC    V(IEAQPGTM)              ADDR OF EOT TIMER PURGE ROUTINE
         AGO   .NEXT2
.NEXT1   ANOP
SCVTPGTM DC    A(IEAQPGTM)              ADDR OF EOT TIMER PURGE ROUTINE
.NEXT2   ANOP
SCVTPGWR DC    V(IEECVPRG)              ADDR OF WTOR PURGE ROUTINE
         AIF   ('&TYPE' EQ 'RES').NEXT3
SCVTSPET DC    V(IEAQSPET)              ADDR OF EOT SUBPOOL RELEASE
         AGO   .NEXT4
.NEXT3   ANOP
SCVTSPET DC    A(IEAQSPET)              ADDR OF EOT SUBPOOL RELEASE
.NEXT4   AIF   ('&TYPE' EQ 'RES').NEXT41
SCVTTACT DC    V(IEAQTAQ)               ADDR OF T.A. CONTROL TABLE
         AGO   .NEXT42
.NEXT41  ANOP
         EXTRN IEAQTAQ
SCVTTACT DC    A(IEAQTAQ)               ADDR OF T.A. CONTROL TABLE
.NEXT42  AIF   ('&TYPE' EQ 'RES').NEXT5
SCVTERAS DC    V(IEAQERA)               ADDR OF EOT ERASE PHASE
         AGO   .NEXT6
.NEXT5   ANOP
SCVTERAS DC    A(IEAQERA)               ADDR OF EOT ERASE PHASE
.NEXT6   AIF   ('&TYPE' EQ 'RES').NEXT61
SCVTQCBO DC    V(IEAQQCB0)              ADDR OF QCB ORIGIN
         AGO   .NEXT62
.NEXT61  ANOP
         EXTRN IEAQQCB0
SCVTQCBO DC    A(IEAQQCB0)              ADDR OF QCB ORIGIN
.NEXT62  ANOP
SCVTPGEQ DC    V(IEA0EQ01)              ADDR OF ENQ/DEQ PURGE ROUTINE
SCVTRMBR DC    V(RMBRANCH)              ADDR OF REGMAIN BRANCH ENTRY
SCVTPGIO DC    V(IGC016)                ADDR OF I/O PURGE ROUTINE
SCVTRACE DC    V(IECXTRA)               ADDR OF TRACE ROUTINE SWITCH
SCVTTASW DC    V(IEA0DS02)              ADDR OF TASK SWITCHING ROUTINE
SCVTCDCL DC    V(IEAQCS02)              ADDR OF CDCONTRL IN LINK
SCVTLFRM DC    V(FMBRANCH)              LIST FORMAT FREEMAIN BRANCH EP
         AIF   ('&TYPE' EQ 'RES').NEXT7
SCVTPABL DC    V(IEAQABL)               ADDR OF CDABDEL IN EOT
SCVTDQTC DC    V(IEADQTCB)              ADDR OF TCB DEQ RTN IN EOT
SCVTHSKP DC    V(CDHKEEP)               ADDR OF CDHKEEP IN EOT
         AGO   .NEXT8
.NEXT7   ANOP
SCVTPABL DC    A(IEAQABL)               ADDR OF CDABDEL IN EOT
SCVTDQTC DC    A(IEADQTCB)              ADDR OF TCB DEQ RTN IN EOT
SCVTHSKP DC    A(CDHKEEP)               ADDR OF CDHKEEP IN EOT
.NEXT8   AIF   ('&TYPE' EQ 'RES').NEXT9
SCVTRPTR DC    V(TRPTR)                 ADDR OF TRACE TABLE POINTERS
         AGO   .NEXT10
.NEXT9   ANOP
         EXTRN TRPTR
SCVTRPTR DC    A(TRPTR)                 ADDR OF TRACE TABLE POINTERS
.NEXT10  ANOP
SCVTGMBR DC    V(GMBRANCH)              LIST FORMAT GETMAIN BRANCH EP
         AIF   ('&TYPE' EQ 'RES').NEXT11
SCVTAUCT DC    V(TAUSERCT)              TRANSIENT AREA USER COUNT
         AGO   .NEXT12                                             RORI
.NEXT11  ANOP
         EXTRN TAUSERCT
SCVTAUCT DC    A(TAUSERCT)              TRANSIENT AREA USER COUNT
.NEXT12  ANOP                                                      RORI
         AIF   ('&TYPE' EQ 'RES').NEXT13                           RORI
SCVTROCT DC    V(IEARCTRS)           ADDRESS OF ROLLOUT COUNTERS   RORI
SCVTROQ  DC    V(IEAROQUE)              ADDRESS OF ROLLOUT QUEUE   RORI
SCVTRIRB DC    V(IEAROIRB)              ADDRESS OF ROLLOUT IRB     RORI
SCVTRTCB DC    V(IEAROTCB)              ADDRESS OF ROLLOUT TCB     RORI
         AGO   .SKPEND                                             RORI
.NEXT13  ANOP                                                      RORI
         EXTRN IEARCTRS                                            RORI
SCVTROCT DC    A(IEARCTRS)           ADDRESS OF ROLLOUT COUNTERS   RORI
         EXTRN IEAROQUE                                            RORI
SCVTROQ  DC    A(IEAROQUE)              ADDRESS OF ROLLOUT QUEUE   RORI
         EXTRN IEAROIRB                                            RORI
SCVTRIRB DC    A(IEAROIRB)              ADDRESS OF ROLLOUT IRB     RORI
         EXTRN IEAROTCB                                            RORI
SCVTRTCB DC    A(IEAROTCB)              ADDRESS OF ROLLOUT TCB     RORI
.SKPEND  ANOP
SCVTCOMM DC    V(IEECVCTW)             ENTRY IN COMM TASK          ABND
SCVTABLK DC    V(SCEDWAIT)             ADDR IN ABTERM              ABND
SCVTNFND DC    V(TBNOTFND)             ADDR IN IEQRT33             ABND
SCVTRMTC DC    V(IGFRMTCB)             RMS TCB                    19022
SCVTMSSQ DC    V(GOVRFLB)              ORIGIN OF MAIN STOR QUEUES  ABND
SCVTCTCB DC    V(IEECVTCB)             COMM TASK TCB               ABND
SCVTETCB DC    V(IEAERTCB)             SYSTEM ERROR TCB            ABND
SCVTRXLQ DC    A(0) .                  RECOVERY EXTNT LIST        20021
SCVTRQND DC    V(IECITSAR) .           END OF I/O RQE TABLE       20021
SCVTTAR  DC    V(IEAQTR02) .           TRAN AREA REFRESH RTN      20021
SCVTSVCT DC    V(IBMORG) .             ORIGIN OF SVC TABLE        20021
SCVTSTXP DC    V(IEAKJXP) .            STAX PURGE RTN             20021
SCVTTQE  DC    V(IEATSELM) .           TSO SUBSYSTEM'S TQE        20021
SCVTRMSV DC    V(IORMSSVC)             RMS SVC                    19022
SCVTMSGS DC    V(IEAQMSGS) .           INFORMATION LIST MODULE    21016
SCVTFMSA DC    V(IEA10FS) .             ADDRESS OF FREE SAVE AREA M3806
SCVTSW1  EQU   X'80' .                  SW SET BEFORE ENTERING    M3806
*                                        FREEMAIN                 M3806
SCVTSW2  EQU   X'40' .                  SW SET BEFORE ENTERING    M3806
*                                        EXIT                     M3806
SCVTSW3  EQU   X'20' .                  SW SET BEFORE FMPAR       21472
*                                        ENTRY IN EXIT FROM ABEND 21472
         MEND
