         MACRO
&NAME    SPRAY &AREA,&BYTE,&CNT
         LCLA  &LEN
         AIF   (T'&BYTE EQ 'N').SP1
&NAME    MVC   &AREA.(1),&BYTE
         AGO   .SP2
.SP1     ANOP
&NAME    MVI   &AREA,&BYTE
.SP2     AIF   ('&CNT' EQ '').SP3
&LEN     SETA  &CNT-1
         AGO   .SP4
.SP3     AIF   (L'&AREA LE 1).SP5
&LEN     SETA  L'&AREA-1
.SP4     MOVE  &AREA+1,&AREA,&LEN
.SP5     ANOP
         MEND
