         MACRO
&NAME    YRETURN
&NAME    L     R13,4(R13)          RESTORE SAVE AREA POINTER
         LM    14,12,12(R13)       RESTORE REGISTERS
         MVI   12(R13),X'FF'           FLAG RETURN
         BR    R14                 RETURN TO CALLER
         MEND
