         MACRO
&NAME    YSECT
&NAME    CSECT
         YREGS
         SPACE
         STM   14,12,12(R13)       SAVE REGISTERS
         BALR  R12,0               ESTABLISH ADDRESSABILITY
         USING *,R12
         B     SAVEAREA+72         BRANCH AROUND SAVE AREA
SAVEAREA DC    18F'0'
         LA    R11,SAVEAREA        A(CALLEE'S SAVE AREA)
         ST    R11,8(R13)          CALLER'S FORWARD POINTER
         ST    R13,4(R11)          CALLEE'S BACKWARD POINTER
         LR    R13,R11             A(CALLEE'S SAVE AREA)
         MEND
