ARTH     TITLE     'ARITH     ARITHMETIC STATEMENT PROCESSOR'
         MACRO
&NAME    ACENT     &N
         CNOP      0,4
&NAME    STM       R13+1,R13-1,12(R13)
         BAL       R11,CENT
         USING     *,R11
         OFFSET    DC,A,&N
         USING     &N,R13
         OFFSET    LRAL,R11,ADENT
         USING     ARITH+8,R11
         MEND
         MACRO
&NAME    AFILL     &OP1,&IN1,&P1,&OP2,&IN2,&P2
         GBLC      &OFFSET
         AIF       (N'&IN1+N'&P1+N'&IN2+N'&P2 EQ 0).N1
         USING     ASAND,R15
.N1      ANOP
&NAME    DC        0H'0'
         AIF       (N'&OP1 EQ 0).M2
         MVN       ZR1+&OP1.(1),ARITOP
.M2      AIF       (N'&IN1 EQ 0).M3
         AIF       ('&OFFSET' EQ 'NO').M3
         MVN       ZR1+&IN1.(1),AINDEX
.M3      AIF       (N'&P1 EQ 0).M5
         MVC       ZR1+&P1.(2),APOINTER
.M5      AIF       (N'&OP2 EQ 0).M6
         MVN       ZR1+&OP2.(1),ARITOP
.M6      AIF       (N'&IN2 EQ 0).M7
         AIF       ('&OFFSET' EQ 'NO').M7
         MVN       ZR1+&IN2.(1),AINDEX
.M7      AIF       (N'&P2 EQ 0).M8
         MVC       ZR1+&P2.(2),APOINTE2
.M8      MEND
         MACRO
&NAME    AOFFSET   &OP,&REG,&ADDR
&NAME    ST        &REG,&ADDR
         MEND
         MACRO
&NAME    AOUT1     &N
&NAME    LA        R2,&N-1
         BAL       R15,ACHKOP
         MEND
         MACRO
&NAME    AOUT2     &N,&M
&NAME    LA        R2,&N-1
         B         ACHSIGN
         MEND
         MACRO
&NAME    AOUT3     &N,&M
&NAME    LA        R2,&N-1
         B         ARITR1
         MEND
         MACRO
&NAME    AOUT6     &N
&NAME    LA        R2,&N-1
         B         ACHSIGNS
         MEND
         MACRO
&NAME    COLUMN    &A
         AIF       (K'&A LT 3).R1
&NAME    DC        XL1'FF'
         MEXIT
.R1      ANOP
&NAME    DC        AL1(&A-1)
         MEND
         MACRO
&NAME    COMB      &A
&NAME    DC        AL1(&A)
         MEND
         MACRO
         COMBINE   &N,&CODE,&RTN
         DC        AL2(ARICD&CODE-ARICD000)
         DC        AL2(ARTN&RTN-ARTN000)
         MEND
         MACRO
         LROW      &N
         DC        AL1((&N-1)*3)
         MEND
         MACRO
&NAME    ROW       &A
         AIF       (K'&A LT 3).R1
&NAME    DC        XL1'FF'
         MEXIT
.R1      ANOP
&NAME    DC        AL1((&A-1)*12)
         MEND
         PRINT     OFF
         COPY      OPTIONS
         $PUNCH    ARITH                                           DVS2
         ENTRY     ARITH
         ENTRY     ACALL
         ENTRY     GIFIF
         ENTRY     IFLOG
         ENTRY     ARECNO
         EXTRN     LASFE
         EXTRN     DCSTN2
         EXTRN     LASFR
         EXTRN     GIF
&DECK    SETC      'ARITH'
         COPY      EXTRN
         COPY      CDEFN
STARTA   DSECT
         COPY      STARTA
COMMR    DSECT
         COPY      COMMR
         ERRTABLE
         PRINT     ON,NOGEN
P        EQU       0
P1       EQU       0
P2       EQU       0
I        EQU       0
I1       EQU       0
I2       EQU       0
LOGICOP  EQU       X'10'
RELOP    EQU       X'20'
ARITHOP  EQU       X'40'
COMPARE  EQU       X'09'
ARERROR  EQU       X'00'
ARBASE   EQU       X'A0'
ARTEMP   EQU       X'A2'
ARNAME   EQU       X'A3'
ARSTNOCN EQU       X'A4'
ARHOLL   EQU       X'A5'
ARCHAR   EQU       X'A5'
ARMEMBR  EQU       X'A8'
ARCONST  EQU       X'A9'
ARR1     EQU       X'AA'
ARF0     EQU       X'AB'
ARAYNAME EQU       X'AC'
U1       EQU       X'10'
ROBJ     EQU       RO
EQSW     EQU       X'80'
CALLSW   EQU       X'40'
DATASW   EQU       X'20'
ASFSW    EQU       X'10'
LOGIFSW  EQU       X'08'
ARITIFSW EQU       X'04'
INPUTSW  EQU       X'02'
OUTPUTSW EQU       X'01'
RCHAR    OFFSET    EQU,R3,R15,OBJECT
BLANK    EQU       X'40'
L1       EQU        1
L2       EQU        1
         EJECT
*        SAVE AREA CSECT - ALL NON-RE-ENTRANT STUFF IS IN HERE
DSAVER   CSECT
DLIFSAVE DS        18F
DASAVE   DS        18F
ASNXTMP  DS        D                   NEXT TEMP FOR FIXED POINT
*                                      THEN FLOATING POINT
ASTMXTMP DS        D                   STORE MAX TEMP FOR PROGRAMME
*                                      WHILE PROCESSING ASF
ASAVE1   DS        4F
ASAVE4   DS        4F
****************************************************
         AIF       ('&WATTYPE' EQ 'DISTR').ASAVE1
ASAVER9  DS        F
.ASAVE1  ANOP
****************************************************
ALOGIFST DS        F
ALOGIFS1 DS        F                   PLACE TO STORE SETSTAK CODE
ALIFSAVE DS        F
ASYMENT  DS        F
ASTEMP1  DS        F
ARITSW   DS        0F
ASWAPSW  DS        X                   SWAP SWITCH
ARITOP   DS        X                   SUFFIX OF OPERATOR
ARELOPSV DS        X                   RELATIONAL OPERATOR
ARIMODE  DS        X                   MODE OF RESULT OF ARITH OP.
ADUMCODE DS        6F
ADUMCOD2 DS        8F                                              V1L4
ASGPR1   DS        F                   STATUS OF R1.  CONTAINS
*                                      A(ENTRY USING R1 - START) IF R1
*                                      IS BUSY, AND 1 IN BIT 31 IF FREE
ASFPR0   DS        F                   GIVES STATUS OF F0 IN SAME WAY
*  OPERAND TABLE
ASAND1   DS        0F                  TABLE FOR STATUS OF OPERAND 1
ASAND1AD DS        F                   STACK ADDRESS
ASAND1CD DS        X                   CODE
ASAND1MD DS        X                   MODE
ASAND1LN DS        X                   LENGTH
AIN1     DS        X                   INDEX
APOIN1   DS        H                   PRIMARY POINTER
APOIN12  DS        H                   SECONDARY POINTER
ASANDNO1 DS        X                   NUMBER OF OPERAND (1)
ASAND2   DS        0F                  TABLE FOR OPERAND 2
ASAND2AD DS        F
ASAND2CD DS        X
ASAND2MD DS        X
ASAND2LN DS        X
AIN2     DS        X
APOIN2   DS        H
APOIN22  DS        H
ASANDNO2 DS        X                                    (2)
AMLTEQSW DS        X              SWITCH FOR MULTIPLE ASSIGNMENT
AEQUIVCD DS        2H
ASABL    DS        H                   BACKWARDS LINK
ACHARL1  DS        X
ACHARL2  DS        X
AERRSW   DS        X                   ERROR CONTINUE SWITCH
AUNDEFSW DS        X
ACALLSW  DS        X
ASFSAVE  EQU       ALOGIFST            PRINTED TWICE FOR S/R NAMES
DSAVEND  DS        0X
         EJECT
*      OTHER DSECTS USED BY ARITH
ASTACK   DSECT
ALINK    DS        H
AOP      DS        C
ACODE    DS        C
AB1      DS        C
AB2      DS        C
APTR     DS        H
         SPACE
ALTSTACK DSECT
ALTLINK  DS        H
ALTOP    DS        C
ALTCODE   DS       C
ALTB1    DS        C
ALTB2    DS        C
ALTPTR   DS        H
         SPACE
ZRCHAR   DSECT
         SPACE
ASAND    DSECT
ASANDADD DS        F
ASANDCD  DS        C
ASANDMD  DS        C
ASANDLN  DS        C
AINDEX   DS        C
APOINTER DS        H
APOINTE2 DS        H
ASANDNO  DS        C
         EJECT
ARITHCS  CSECT
*  LEFT TO RIGHT SYNTAX AND LOOKUP SCAN OF INPUT
         PRINT     ON,GEN                                          V1L5
         $FREE     R14                                             V1L5
         $FREE     R1,R2,R3,R4,R5,R6,R7,R8,R14,R15                 V1L5
ARITH    CENT      DASAVE
         USING     ASTACK,RS
         USING     DASAVE,R13
         MVI       AERRSW,0
         MVI       ACALLSW,0
ARITH1   SR        R0,R0
**********************************************************************
         AIF       ('&WATTYPE' EQ 'DISTR').ARITH2
*       DEBUG VERSION ONLY
         ST        RS,ASAVER9          SAVE BEGINNING OF STACK TO DUMP
.ARITH2  ANOP
**********************************************************************
ARITH2   LD        F0,ASATEMP
         STD       F0,ASNXTMP
         MVC       ASAND1CD(28),AINIT  INITIALLIZE SAVE AREA - NEW JOB
         MVC       AUNDEFSW(1),CUNDEFSW
ADS6     STH       R0,ASABL            SET UP 'BACKWARDS LINK'
         SR        R2,R2
ADS3     IFNOT     (AOP,OFF,LOGICOP+RELOP+ARITHOP),ADS30
         IC        R2,AOP
         N         R2,KF15
         IC        R2,AOPTB(R2)
         BAL       R14,APHI(R2)
ADS30    IF        (ACODE,OFF,CHOLL+CLOGC+CCONS),ADSNAM
         IF        (ACODE,GT,CLOGC),ADS25
         BL        ADSHOL              HOLLERITH
ADSLOG   MVI       AB1,LOG4            LOGICAL CONSTANT ROUTINE
         MVI       ACODE,ARCONST
         B         ADS1
*   HOLLERITH ROUTINE
ADSHOL   MVI       ACODE,ARCHAR
         MVI       AB1,CHARN           MAKE A CHARACTER*N CONSTANT
         LH        R0,APTR
         S         R0,CSYMBASE
         STH       R0,APTR
         B         ADS1                OK RETURN
*   CONSTANT ROUTINE
ADSCON   CLC       ASABL(2),KH4        WAS LAST OPERAND PHI
         BE        ADSCON1
         LA        R14,ADS9
         B         AERRCN6
ADSCON1  SH        RS,ASABL            BACK UP
         LH        R0,ALINK
         MVC       ALINK(2),ASABL
         STH       R0,ASABL
ADS25    IF        (AOP,EQ,PLUS),ADS24
         IF        (AOP,NE,MINUS),ADS9
ADS24    CLC       ASABL(2),KH4        WAS LAST OPERAND PHI
         BNE       ADS9
         SH        RS,ASABL
         IF        (AOP,GE,ARITHOP),ADS27
         IF        (AOP+4,NE,MINUS),ADS26
         LA        R14,ALINK+4         IF A NEGATIVE CONSTANT, CHECK
         USING     ALTSTACK,R14        FOR A ** AS ONE OF THE NEXT
         LA        R2,4                FOUR OPERATORS IN THE STACK.
ADSC2    AH        R14,ALTLINK         IF ONE EXISTS, CHANGE THE
         IF        (ALTOP,EQ,TERM),ADS26    NEGATIVE CONSTANT TO A
         IF        (ALTOP,NE,DSTAR),ADSC1  CONSTANT WITH A UNARY MINUS
ADS27    AH        RS,ASABL            RE-ADVANCE STACK POINTER
         B         ADS9
         $FREE     R14                                             V1L5
ADSC1    BCT       R2,ADSC2
ADS26    LH        R0,ALINK
         MVC       ALINK(2),ASABL
         STH       R0,ASABL
ADS9     EQU       *
         BAL       R14,COLCONST        COLLECT CONSTANT
         STC       R0,AB1
         MVI       ACODE,ARCONST
         STH       R3,APTR
         IF        (AOP,NE,PHI),ADS1
         CLC       ASABL(2),KH4        WAS LAST OPERAND PHI
         LA        R14,ADS1
         BE        ATWOPHIS
         TM        AERRSW,X'01'                                    V1L3
         BCR       1,R14               ERROR ALREADY GIVEN         V1L3
         MVI       ACODE,X'80'         FOR ERROR IN CASE           V1L3
         B         AERRSX0
*     NAME ROUTINE
ADSNAM   IF        (ACODE,EQ,PHI),ADS1 IS OPERAND PHI
         LOOKUP    VARIABLE
         USING     VLIST,R15
         MVI       ACODE,ARNAME
         LH        R4,VB1
         STH       R4,AB1              PUT B1 AND B2 IN STACK
         ST        R15,ASYMENT         STORE A(SYMTAB ENTRY)
         STH       R3,APTR
         $FREE     R15                                             V1L5
         LR        R15,RS
         AH        R15,ALINK
         USING     ALTSTACK,R15
         IF        (ALTOP,NE,LBRK),ADSNAM1
         MVI       ALTOP,FBRK
         $FREE     R15                                             V1L5
         MVI       ACODE,ARMEMBR
ADSNAM1  IFNOT     (AB1,VAR),ADSFN
         IF        (AB1,DIM),ADSARR
ADSVAR   IF        (ACODE,EQ,ARMEMBR),ADSVAR2
         IF        (AB1,ON,CHAR1),ADSCHAR
         IF        (AB2,OFF,B2COM+B2EQV),ADSVAR11          COM. OR EQ.
         MVI       ACODE,ARMEMBR       YES CHANGE CODE
ADSVAR11 IF        (AB2,OFF,B2AS),ADS2
* AS-3  WARNING  -  ASSIGNED VARIABLE USED IN AN ARITHMETIC EXPRESSION
AERRAS3  $ERROR    (WARN,GO,3,RELRS),ADS2                          V1L5
ADSVAR2  IF        (AB2,NOFF,USAGE+B2DO+INIT+B2COM+B2EQV),AERRVA8
         IF        (AB1,ON,CHAR1),AERRVA8        NO CHAR. FUNCTIONS
         NI        AB1,CHAR1+COMP16    CHANGE TO FUNCTION
         OI        AB1,FUNC
         NI        AB2,ALL-U1
         L         R15,ASYMENT                                     V1L5
         USING     VLIST,R15
         MVC       VB3(2),XISN         STORE ISN IN SYMTAB
         IF        (CADSSW,ON,EQSW),ADS21   IS EQ SW ON ?          V1L5
         IF        (AOP,NE,TERM),ADS21                             V1L5
         IF        (AB2,ON,PARM),AERRVA81
         OI        AB2,TYPE+ASF        CHANGE TO ASF
         LH        R0,AB1              UPDATE SYMTAB ENTRY
         STH       R0,VB1
         MVI       ACODE,ARMEMBR
         GETSYM    8
         LR        R4,R15              SET UP P(# TEMPS) FOR ASF
         SR        R4,R6
         STH       R4,VLIST+10         STORE IN SYMTAB
         $FREE     R15                                             V1L5
         MVC       ASTMXTMP(8),CANXTMP STORE # OF TEMPS FOR PROGRAM
         MVI       ASNXTMP+3,X'50'     SET UP # OF TEMPS FOR ASF   V1L1
         MVC       CANXTMP(8),ASNXTMP  SET UP MAX  TEMPS FOR ASF
         IF       (ALIFSW,NOFF,X'FF'),AERRSF2
ASFCH2   IF        (CURSTNO,EQ,X'FF'),ASFCH3
         OFFSET    LRAL,R15,CSTNOLK
         USING NLIST,R15
         NI        NB1,ALL-EXEC        TURN OFF EXEC BIT
         IF        (NB1,ON,REF),AERRSF1
         $FREE     R15                                             V1L5
ASFCH3   OI        CADSSW,ASFSW        TURN ON ASF BIT
         MVI       CASF1,1
         IF        (CASF2,OFF,2),ASFCH4
*  SF-4   ASF FOLLOWS FIRST EXECUTABLE STATEMENT
AERRSF4  $ERROR    (WARN,SF,4)                                     V1L5
ASFCH4   L         R3,ADLASFE
         LA        R14,ADS6
         ST        RS,ASFSAVE          SAVE VALUE OF RS            V1L5
         OFFSET    BR,R3               CALL LANDR'S ASF PROCESSOR  V1L5
ADSFN    IF        (AB1,OFF,X'C0'),AERRCM4    SHOULD BE (AB1,OTHR)
         IF        (AB2,ON,X'02'),AERRSR3
         IF        (ACODE,EQ,ARMEMBR),ADSFN1
         IF        (AB2,ON,X'01'),AERRSF5
         IF       (ACALLSW,NE,X'01'),ADSARR1
         B         ADS1
ADSFN1   NI        AB2,ALL-U1
         IFNOT    (AB1,SUBR),ADS2
         IF        (CADSSW,OFF,CALLSW),AERRVA6
         IF        (AOP,EQ,TERM),ADS1
ADSARR   IF        (ACODE,NE,ARMEMBR),ADSARR1                      V1L1
         IF        (CADSSW,OFF,DATASW),ADS2                        V1L1
         IF        (AB2,NON,PARM),ADS2                             V1L1
         IF        (AOP,NE,TERM),ADS2                              V1L1
         MVI       AERRSW,1                                        V1L1
         $ERROR    (BOOT,DA,2,RELRS),ADS2                          V1L5
ADS21    TM        AB2,TYPE            HAS THE FUNCTION BEEN TYPED V1L5
         BO        ADS2                YES                         V1L5
         USING     VLIST,R15                                       V1L5
         MVC       AFTDUMMY(6),VNAME   PUT THE NAME IN THE DUMMY   V1L5
         STM       R5,R7,XRUPTSV       SAVE R5-R7                  V1L5
         L         R6,VNAME            GET THE NAME                V1L5
         SR        R7,R7                                           V1L5
         LR        R0,R7                                           V1L5
ALHIGH   IC        R0,AFTDUMMY+8(R7)   GET THE HIGH POINTER        V1L5
         LR        R7,R0               SAVE IT                     V1L5
         MH        R7,KH12             SET UP THE INDEX            V1L5
         CL        R6,AFTDUMMY(R7)     IS THIS THE ONE ?           V1L5
         BH        ALHIGH              NO, IT'S LOWER              V1L5
         BE        ALEQUAL             YES                         V1L5
ALLOW    IC        R0,AFTDUMMY+7(R7)   GET THE LOW POINTER         V1L5
         BL        ALHIGH+4            IT'S LOWER                  V1L5
ALEQUAL  LA        R5,AFTDUMMY(R7)     POINT AT THE NAME           V1L5
         CLC       VNAME+4(2),4(R5)    CHECK THE LAST 2 CHARACTERS V1L5
         BH        ALHIGH              HIGHER                      V1L5
         BL        ALLOW               LOWER                       V1L5
         C         R5,=A(AFTDUMMY)     IS IT THE DUMMY ?           V1L5
         BE        ARESTORE            YES                         V1L5
         OC        AB1(1),6(R5)        SAVE THE TYPE               V1L5
ARESTORE LM        R5,R7,XRUPTSV       RESTORE R5-R7               V1L5
         B         ADS2                GO PROCESS THE FUNCTION     V1L5
         $FREE     R15                                             V1L5
ADSARR1  BAL       R14,ASCHCOMC
         B         AERRSV1             ERROR
          B         ADS2                OK
ADSCHAR  MVI       ACODE,ARCHAR
ADS2     OI        AB2,TYPE+USAGE      TURN ON BITS
         L         R15,ASYMENT
         USING     VLIST,R15
         LH        R0,AB1
         STH       R0,VB1              UPDATE SYMTAB ENTRY
         $FREE     R15                                             V1L5
ADS1     LH        R0,ALINK            ADVANCE TO NEXT ENTRY
         MVC       ALINK(2),ASABL
         STH       R0,ASABL
         AR        RS,R0
         IF        (AOP,NE,TERM),ADS3
         B         AUPSCAN             YES
AOPTB    DC        AL1(APHI-APHI)      PHI
         DC        AL1(ADS31-APHI)     END DELIM.
         DC        AL1(ADS31-APHI)     FN. BR.
         DC        AL1(ALBR-APHI)      (
         DC        AL1(ADS31-APHI)     ,
         DC        AL1(AEQ-APHI)       =
         DC        AL1(ARBR-APHI)      )
         DC        AL1(ADPT-APHI)      .
         DC        AL1(AMPSND-APHI)    &
         DC        AL1(AQUOTE-APHI)    SINGLE QUOTE
APHI     CLC       ASABL(2),KH4        WAS LAST OPERAND PHI
         BE        ATWOPHIS            YES REMOVE TWO PHIS FROM STACK
         B         AERRSX0
ALBR     CLC       ASABL(2),KH4        WAS LAST OPERAND PHI
         BER       R14                 YES - OK
         B         AERRSX0
AEQ      IF        (CADSSW,LT,EQSW),AEQ1             TEST SWITCHES
         BE        AERREQA             YES - WARNING
         MVI       AERRSW,1       YES - AND ALSO SOME OTHER SWITCHES
*  EQ-8  UNEXPECTED EQUALS SIGN
AERREQ8  $ERROR    (BOOT,EQ,1,DELRS,UNEX),DONE                     V1L5
*  EQ-A   WARNING   UNEXPECTED EQUALS SIGN
AERREQA  MVI       AMLTEQSW,X'FF'      SET MULTIPLE ASSIGNMENT SWITCH
         $ERROR    (LANG,EQ,2),DONE                                V1L5
AEQ1     OI        CADSSW,EQSW         TURN ON EQ SW
ADS31    BR        R14
AQUOTE   LA        R14,AQUTCHG         FOR RETURN                  V1L3
AERRSX1  $ERROR    (NOAC,SX,1,DELRS,INVAL),DONE                    V1L5
AQUTCHG  MVI       AOP,X'01'           CHANGE TO TERM.             V1L3
         B         ADS30                                           V1L3
ARBR     IF        (ACODE,EQ,PHI),ADS1
         LA        R14,ADS1
         B         AERRSX0
ADPT     IF        (ACODE,OFF,CCONS),AERRCN6  MISPLACED DECIMAL?   V1L5
         LR        R2,RS               POINT R2 TO STACK           V1L5
         SR        R2,R0               BUMP STACK PTR UP 1 ENTRY   V1L5
         USING     ALTSTACK,R2                                     V1L5
         IF        (ALTOP,ON,X'80'),AERRCN6  ISSUE CN-5 FOR )      V1L5
         $FREE     R2                                              V1L5
         B         ADSCON              ELSE CONTINUE PROCESSING    V1L5
*    STATEMENT NUMBER ROUTINE
AMPSND   IF        (ACODE,NE,CCONS+1),AERRHO4      IS OPND A CONSTANT
         CLC       ASABL(2),KH4        WAS LAST OPERAND PHI
         BNE       AERRHO4             NO - ERROR
         BAL       R14,ATWOPHIS        REMOVE PHI AND & FROM STACK
         L         R3,ADCSTN2
         OFFSET    BALR,R14,R3
         USING     NLIST,R15
         MVI       ACODE,ARSTNOCN
         MVI       AB1,STAT
         STH       R3,APTR             STORE POINTER IN STACK
         $FREE     R15                                             V1L5
         BAL       R14,ASCHCOM
         BAL       R14,AERRHO4
         IF        (CADSSW,ON,CALLSW),ADS1  CALL STATEMENT
*  ST-8  STATEMENT NUMBER CONSTANT MUST BE IN A CALL STATEMENT
AERRST8  MVI       AERRSW,1
         $ERROR    (BOOT,RE,2),ADS1                                V1L5
         AFUNCDEF  CORE=ALL                                        V1L5
         $AFTLIST  AFTBEG,AFTDUMMY                                 V1L5
         ASTATLIS                                                  V1L5
         EJECT
*  ROUTINES USED BY SYNTAX SCAN
*  GETS RID OF TWO PHIS IN STACK
ATWOPHIS S         RS,KF4
         LH        R0,ASABL
         AH        R0,ALINK
         STH       R0,ASABL
         MVC       AOP+4(1),AOP
         LA        RS,AB1
         BR        R14
*  ROUTINE TO CHECK FOR ENCLOSING COMMAS  ETC.
ASCHCOMC IF        (AOP,NE,TERM),ASCHCOM
         LR        R15,RS
         USING     ALTSTACK,R15
         AH        R15,ALTLINK
         IF        (ALTOP,NE,TERM),DONE
         IF        (CADSSW,OFF,INPUTSW+OUTPUTSW),DONE TEST I/O SWITCHES
         B         ZR14+4
         $FREE     R15                                             V1L5
ASCHCOM  LR        R15,RS
         USING     ALTSTACK,R15
         AH        R15,ALTLINK
         IF        (ALTOP,EQ,COMMA),ASCH1
         IF        (ALTOP,NE,RBRK),DONE          ERROR RETURN
ASCH1    IF        (AOP,EQ,COMMA),ZR14+4         OK RETURN
         IF        (AOP,EQ,FBRK),ZR14+4          OK RETURN
         BR        R14                 ERROR RETURN
         $FREE     R15                                             V1L5
         EJECT
*  ENTRY POINT FOR CALL STATEMENT
ACALL    ACENT     DASAVE
         SR        R2,R2
**********************************************************************
         AIF       ('&WATTYPE' EQ 'DISTR').ACALL
         ST        RS,ASAVER9
.ACALL   ANOP
**********************************************************************
         MVI       AERRSW,X'00'
         MVI       ACALLSW,X'00'       TURN OFF SPECIAL SWITCH
         OI        CADSSW,CALLSW+EQSW
         LR        R15,RS
         USING     ALTSTACK,R15
         AH        R15,ALTLINK
         IF        (ALTOP,EQ,LBRK),ACALL27
ACALL26  MVI       ACALLSW,X'01'
         B         ACALL22
ACALL27  OFFSET    LRAL,R15,CSRT1      GET CLOSING )
         CR        R15,RS
         BNH       ACALL28
          AH        R15,ALTLINK
         AH        R15,ALTLINK
         IF        (ALTOP,EQ,TERM),ACALL22
         $FREE     R15                                             V1L5
ACALL28  BAL       R14,AERRST51
ACALL22  LA        R14,CRET
         IF        (ACODE,NOFF,CHOLL+CLOGC+CCONS),AERRST51
         IF        (ACODE,EQ,PHI),AERRST51
         OI        VA0SW,X'80'         TURN ON SW TO ELIMINATE VA0 V1L4
         LOOKUP    VARIABLE            MSG IS PRINTED WHEN S/R NAME
         NI        VA0SW,X'7F'         IS LOOKED UP BY NAME RTN    V1L4
         USING     VLIST,R15
         IF        (VB1,SUBR),ARITH1
         IFNOT     (VB1,VAR),ACALL30
         IF        (VB1,DIM),AERRVAA
         IF        (VB2,NOFF,ALL-PARM),AERRVAA  TEST BITS
         MVC       VB3(2),XISN         STORE ISN IN SYMTAB
ACALL21  MVI       VB1,SUBR            MAKE NAME A SUBR
         OI        VB2,TYPE+USAGE      TURN ON BITS
         B         ARITH1
ACALL30  IF        (VB1,OFF,X'C0'),AERRVAA   SHOULD BE (VB1,OTHR)
         IF        (VB2,NOFF,B2PRM),AERRVAA     IS NAME EXTERNAL
         IF        (VB2,OFF,U1),AERRVAA     CAN IT BE CHANGED TO S/R
         NI        VB2,ALL-U1  YES - TURN OFF U1
         B         ACALL21
         $FREE     R15                                             V1L5
         EJECT
*  ENTRY POINT FOR ARITHMETIC IF STATEMENT
GIFIF    ACENT     DASAVE
         AH        RS,ALINK
**********************************************************************
         AIF       ('&WATTYPE' EQ 'DISTR').ARIF
         ST        RS,ASAVER9
.ARIF    ANOP
**********************************************************************
         IF        (AOP,NE,LBRK),AERRST52
         MVI       AOP,TERM            CHANGE ( TO TERM
         MVI       AERRSW,X'00'
         OI        CADSSW,ARITIFSW+EQSW   SET STATEMENT SWITCHES
         B         ARITH1              GO TO ARITH. PROCESSOR
         EJECT
*  ENTRY POINT FOR LOGICAL IF STATEMENT
IFLOG    ACENT     DLIFSAVE
         LA        R13,DASAVE
         USING     DASAVE,R13
         AH        RS,ALINK
**********************************************************************
         AIF       ('&WATTYPE' EQ 'DISTR').AIFLOG
         ST        RS,ASAVER9
.AIFLOG  ANOP
**********************************************************************
         IF        (AOP,NE,LBRK),AERRST52
         MVI       AOP,TERM            CHANGE ( TO TERM
         MVI       AERRSW,X'00'
         OI        CADSSW,LOGIFSW+EQSW  TURN ON LOG IF AND EQ SW
         OI  CDOEND,X'04'  SET SWITCH FOR STATEMENT NUMBER CHECKING
         ST        R4,ALOGIFST
         MVC      ALOGIFS1(3),KF0
         STC      R3,ALOGIFS1+3
         B         ARITH1
         EJECT
*  DIRECT ACCESS AND UNIT NO. ENTRY POINT
ARECNO   ACENT     DASAVE
         MVI       CADSSW,ASFSW+OUTPUTSW
         MVI       AOP,EQUAL
         OFFSET     LRAL,R1,XSYMBOL
*********************************
         AIF       ('&WATTYPE' EQ 'DISTR').ARECNO1
         ST       R1,ASAVER9    SAVE BEGINNING OF STACK TO DUMP
.ARECNO1 ANOP
*********************************
         LR       R0,RS
         SR       R0,R1
         MVI       AERRSW,0
         MVI       ACALLSW,0
         B         ARITH2
         EJECT
*  ERROR MESSAGES ISSUED ONLY BY SYNTAX SCAN
*  CM-4  ILLEGAL USE OF COMMON BLOCK OR NAMELIST NAME
AERRCM4  MVI       AERRSW,1
         $ERROR    (BOOT,CM,2,RELRS),ADS1                          V1L5
*  CN-6  UNEXPECTED DECIMAL  POINT
AERRCN6 MVI        AERRSW,1
         $ERROR    (BOOT,CN,5,DELRS,UNEX),DONE                     V1L5
*  HO-4  UNEXPECTED HOLLERITH OR STATEMENT NUMBER CONSTANT
AERRHO4  MVI       AERRSW,1
         $ERROR    (BOOT,HO,3),DONE                                V1L5
*  SF-1  PREVIOUSLY REFERENCED STATEMENT NUMBER ON ASF
AERRSF1  MVI       AERRSW,1
         $ERROR    (BOOT,SF,1,STNR15),ASFCH3                       V1L5
*  SF-2  ASF IS THE OBJECT OF A LOGICAL IF STATEMENT
AERRSF2  MVI       AERRSW,1
         $ERROR    (BOOT,SF,2),ASFCH2                              V1L5
AERRST52 LA        R14,CRET            FOR RETURN                  V1L3
AERRST51 MVI       AERRSW,X'01'
         $ERROR    (BOOT,ST,3),DONE                                V1L5
*  SR-3  ATTEMPT TO USE A SUBPROGRAMME RECURSIVELY
AERRSR3  MVI       AERRSW,X'01'
         $ERROR    (BOOT,SR,3,RELRS),ADS1                          V1L5
* SF-5  ILLEGAL USE OF AN ASF NAME
AERRSF5 MVI        AERRSW,X'01'
         $ERROR    (BOOT,SF,5,RELRS),ADS2                          V1L5
*  SV-1  ARRAY NAME OR SUBPROGRAMME NAME USED INCORRECTLY WITHOUT LIST
AERRSV1  MVI       AERRSW,1
         $ERROR    (BOOT,SV,1,RELRS),ADS2                          V1L5
*  SX-0  MISSING OPERATOR
AERRSX0  MVI       AERRSW,1
         $ERROR    (BOOT,SX,0,DELRS,UNEX),DONE                     V1L5
*  VA-6  ILLEGAL USE OF A SUBROUTINE NAME
AERRVA6  MVI       AERRSW,1
         $ERROR    (BOOT,VA,2,RELRS),ADS1                          V1L5
*  VA-8  ATTEMPT TO USE A PREVIOUSLY DEFINED NAME AS A FUNCTION
AERRVA8  MVI       AERRSW,1
         $ERROR    (BOOT,VA,4,RELRS),ADS1                          V1L5
AERRVA81 MVI       AERRSW,1
         $ERROR    (BOOT,VA,4,RELRS),ADS2                          V1L5
*  VA-A  ATTEMPT TO USE A PREVIOUSLY DEFINED NAME AS A SUBROUTINE
AERRVAA  MVI       AERRSW,1
         $ERROR    (BOOT,VA,5,NAMR15)                              V1L5
         LR        R15,RS
         AH        R15,ALINK
         IF        (2(R15),NE,LBRK),ADS1
         MVI       2(R15),COMMA        CHANGE ( TO , TO AVOID EXTRA
         B         ADS1                ERROR MESSAGE
         DS        0D
ASATEMP  DC        X'0000D064'         FIRST TEMP. FOR FIXED POINT
         DC        X'0000E000'         FIRST TEMP FOR FLOATING POINT
AINIT    DC        8X'00',X'01',15X'00',X'02005830'
ADCSTN2  OFFSET    DC,A,DCSTN2
ADLASFE  OFFSET    DC,A,LASFE
ADENT    OFFSET    DC,A,ARITH+8
         LTORG
         EJECT
*  RIGHT-TO-LEFT  CODE-GENERATING SCAN
AUPSCAN  DC        0H'0'
**********************************************************************
*       DEBUG VERSION ONLY
         AIF       ('&WATTYPE' EQ 'DISTR').AR1
         L         R15,ASAVER9
         LA        R2,25(,RS)
         SR        R2,R15
         CSNAP     ARITHD,0(R15)
.AR1     ANOP
**********************************************************************
         MVI       ASGPR1+3,X'01'      SET R1 TO FREE
         MVI       ASFPR0+3,X'01'      SET F0 TO FREE
         SR        R8,R8  INITIALLIZE FOR DOUBLE JUMP TABLE LOOKUP
         SR        R7,R7
         IC        R7,AOP
         LA        R11,AHOLD
         USING     AHOLD,R11
         IF        (AERRSW,ON,X'01'),ACRET2      IF ERROR, GO TO END
         IC        R7,ASEQTAB(R7)
*  COMES HERE TO MOVE UP (LEFT) ONE OPERATOR IN THE STACK
* ASSUMES R7 CONTAINS THE SEQUENTIAL NUMBER (AUPTAB1) OF THE LEFT-MOST
*  OPERATOR OF THE LAST PAIR OF OPERATORS EXAMINED
* ASSUMES ASABL CONTAINS THE REVERSE LINK TO THE PREVIOUS (TO THE LEFT)
*   ENTRY IN THE STACK
AHOLD    LH        R0,ASABL            BACK UP POINTER
         SR        RS,R0
         MVC       ASABL(2),ALINK      STORE LINK AT ASABL
         STH       R0,ALINK            RESET ALINK TO POINT FORWARD
AUPLK    IC        R8,AUPTAB2(R7)      16*R7 INTO R8
         IC        R7,AOP
         IC        R7,ASEQTAB(R7)      SEQUENTIAL NUMBER OF AOP IN R7
         AR        R8,R7
         IC        R8,AJMPTAB(R8)  ADDRESS OF PROPER ROUTINE
         B         AHOLD(R8)
ANOTER   EQU       *
AUNDEC   EQU       *
AUPPHI   EQU       *
*  SX-9  ILLEGAL SEQUENCE OF OPERATORS
AERRSX9  $ERROR    (BOOT,SX,9),ACRET                               V1L5
AEND     B         ARTT                CHECK FOR CALL STATEMENT, ETC.
APAREN   B         ACRET
AEQER    EQU       *
*  EQ-0  ILLEGAL QUANTITY ON LEFT OF EQUALS SIGN                   V1L5
AERREQ6  $ERROR    (BOOT,EQ,0),ACRET1                              V1L5
AEQ4     DS        0H                                              V1L5
*  EQ-4  ILLEGAL QUANTITY ON RIGHT OF EQUALS SIGN                  V1L5