DODO     TITLE     'DODO     DO AND GO TO STSTEMENT PROCESSOR'
         MACRO
&NAME    DFIXU     &LOC
&NAME    STH       R3,&LOC(1)+2
         AIF       (N'&LOC EQ 1).END
         STH       R3,&LOC(2)+2
         AIF       (N'&LOC EQ 2).END
         STH       R3,&LOC(3)+2
         AIF       (N'&LOC EQ 3).END
         STH       R3,&LOC(4)+2
         AIF       (N'&LOC EQ 4).END
         STH       R3,&LOC(5)+2
.END     ANOP
         MEND
         SPACE     3
         MACRO
&NAME    DCSTN2
&NAME    MVC       DSVR13(4),4(R13)    SAVE POINTER BACK
         L         R14,=A(DCSTN2)
         BALR      R14,R14
         MVC       4(4,R13),DSVR13     RESTORE POINTER BACK
         MEND
         EJECT
         COPY      OPTIONS
         SPACE     1
&DECK    SETC      'DODO'
         PRINT     OFF
         $PUNCH    DODO                                            DVS2
         COPY      EXTRN
         COPY      CDEFN
STARTA   DSECT
         COPY      STARTA
COMMR    DSECT
         COPY      COMMR
         ERRTABLE
         PRINT     ON
         PRINT     ON,&LIST
         SPACE     1
         ENTRY     GASSN
         ENTRY     GIF
         ENTRY     GOGO
         ENTRY     DODO
         ENTRY     DCSTN1
         ENTRY     DCSTN2
         ENTRY     DOIOEND,DOIOENT
         SPACE     1
DOSTACK  DSECT
DOLINKB  DS        H                   LINK BACK TO PREVIOUS ENTRY
DOLINKF  DS        H                   LINK FORWARD  0 MEANS
*                  NON-EXISTENT LINK FORWARD
DOINDX   DS        H                   INFORMATION
DOINIT   DS        H                   FOR CANCELLING
DOTEST   DS        H                   DO
DOINCR   DS        H                   PARAMETERS
DOPSEUD  DS        F                   CDONO AND ADDRESS OF PSEUDO STA
DIADDR   EQU       DOPSEUD
DOSTANO  DS        F                   STA NO IN BINARY
         AIF       ('&STR' NE 'USE').DSTR1                         ST1
DOISN    DS        F                   ISN OF DO STATEMENT         ST1
.DSTR1   ANOP                                                      ST1
         SPACE     1
IHALF    EQU       B'00000001'         HALF WORD INTEGER
         SPACE     1
COM      EQU       COMMA
*        THESE OP CODES ARE USED IN OBJECT CODE
ST       EQU       X'50'
STH      EQU       X'40'
L        EQU       X'58'
LH       EQU       X'48'
C        EQU       X'59'
CH       EQU       X'49'
A        EQU       X'5A'
AH       EQU       X'4A'
         TITLE     'GOTO STATEMENT'
GODO     CSECT
         SPACE     1
***********************************************************************
*        THIS SECTION OF DODO COMPILES SIMPLE GOTO                    *
*                                      ASSIGNED GOTO                  *
*                                      COMPUTED GOTO                  *
***********************************************************************
*        1ST WE MUST DECIDE WHETHER WE ARE DEALING WITH A SIMPLE GO TO
*        ASSIGNED GO TO OR COMPUTED GOTO
*        IF A '(' FOLLOWS THE LETTERS 'GOTO' WE HAVE A COMPUTED GO TO
*        IF A NUMBER FOLLOWS 'GOTO' WE HAVE A SIMPLE GO TO
*        IF A VARIABLE FOLLOWS 'GOTO' WE HAVE ASSIGNED GOTO
***********************************************************************
         SPACE     1
DOEND    EQU       CDOEND
*        X'01' = GOTO PAUSE,STOP RETURN,ARITH IF,DO OR
*                  LOGICAL IF CONTAINING ANY OF ABOVER
*        X'02' = NON EXECUTABLE STATEMENT
*        X'04' = LOGICAL IF
         SPACE     2
GOGO     CENT      DSAVER
         USING     STAK,RS
         OI        DOEND,X'01'         INDICATE GOTO CAN'T BE END DO
         IF        (SCODE,EQ,PHI),GCSTA   TEST FOR OPERATER
         IF        (SCODE,Z,CCONS),GASTA   TEST FOR STA NO
         SPACE     2
***********************************************************************
*        S I M P L E  G O T O
***********************************************************************
         SPACE     2
         MVI       CIFGOTSW,X'01'      NEXT STAT SHOULD BE NUMBERED
         DCSTN2                        LOOKUP AND CHECK STA NO
         DFIXU     GOBJCD              STORE POINTER FOR STA NO
         AH        RS,SLINK
         IF        (SOPTR,NE,TERM),GERSX1 TEST FOR TERMINATER
         OUTPUT    GOBJCDND-GOBJCD,GOBJCD  OUTPUT OBJECT CODE
         CRET
         SPACE     1
*        OBJECT CODE FOR SIMPLE GO TO
***********************************************************************
GOBJCD   L         R3,*-*
         BR        R3
GOBJCDND EQU       *
***********************************************************************
         SPACE     5
***********************************************************************
****     C O M P U T E D  G O T O                                  ****
***********************************************************************
         SPACE     1
         USING     STAK,RS
GCSTA    MVI       GCMOD1,L            SET TO FULL WORD LOAD
*        FIX ADDRESS IN THE EX INSTRUCTION OBJ CODE
         LR        R3,R5
         S         R3,CBAR11           THIS LEAVES A DISPLACEMENT IN R3
         O         R3,=X'0000B000'     OR IN BASE REGISTER 11
         LA        R3,GCMOD6A-4-GCMOD1(R3) FINAL DISPL FOR EX INSTRUCT
         STH       R3,GCMOD6+2
*        R5  PTR TO OBJ CODE  IS IN GTEMP1 FOR LATER USE IN PATCH UP
         ST        R5,GTEMP1
         OUTPUT    GCMOD6A-GCMOD1,GCMOD1 OUTPUT INITIAL PART OF OBJ CD
         SR        R7,R7               R7 COUNTS STA NOS
         AH        RS,SLINK            NEXT LINE
         BAL       R11,GCHKLP          GO AND CHECK FOR '('
         USING     *,R11
         AH        RS,SLINK            NEXT LINE
         IF        (SOPTR,NE,COM),GCRTPAR  TEST FOR COMMA
GCKSN    IF        (SCODE,NZ,CCONS),GCER3   TEST FOR STA NO
         BAL       R8,DERSX6           THE STA NO WAS MISSING
         BR        R11
GCER3    DCSTN2                        LOOKUP AND CHECK STA NO
         LR        R1,R5               GET READY TO MUCK UP OBJECT CODE
         S         R1,KF4              GO BACK 4
         CLC       0(4,R1),GCBXBT      CHECK FOR 'B XBOOT'
         BE        GCSKP
         DFIXU     GCMOD7              STORE PTR FOR STA NO IN OBJ CODE
         OUTPUT    4,GCMOD7            OUTPUT L INSTR FOR EACH STA NO
GCSKP    LA        R7,1(R7)            INCREASE COUNT OF # OF STA NOS
         BR        R11                 LOOP-LOOK AT NEXT LINE
GCHKLP   IF        (SOPTR,EQ,LBRK),GCKSN CHECK FOR '(' APPEARING RIGHT
*                                      AFTER THE 'GOTO'
         LA       R8,GCKSN
         B         DERSX1
GCRTPAR  IF        (SOPTR,NE,RBRK),GERSX1 WE HAVE HIT THE END OF THE
*                                      STATEMENT NUMBER LIST
         IF        (SCODE,EQ,PHI),GCAH  TEST FOR PHI
         BAL       R8,DERSX0           THERE IS SOMETHING BETWEEN THE
*                                      '(' AND ',' IN A COMPUTED GOTO
GCAH     AH        RS,SLINK
         IF        (SOPTR,NE,COM),GCFXER         TEST FOR COMMA    V1L2
         IF        (SCODE,Z,MNAME),GCER6  TEST FOR NAME
         L         R5,GTEMP1           IN CASE OF ERROR
         $ERROR    (BOOT,SX,2,SYMRS,UNEX),CRET NO NAME WAS FOUND   V1L5
GCER6    IF        (SOPTR,M,X'0F'),GCLOOK    TEST IF NAME LENGTH 0
         L         R5,GTEMP1           IN CASE OF ERROR
         $ERROR    (BOOT,GO,3,SYMRS,UNEX),CRET THIS MSG NOT GOOD   V1L5
*        LOOKUP OF A SIMPLE VARIABLE
GCLOOK   LA        R8,CRET             ERROR RETURN FOR DCOM
         LOOKUP    VARIABLE
         USING     VLIST,R15
         ST        R5,GTEMP2           STORE PRESENT R5
         L         R5,GTEMP1           OLD VALUE OF R5-IN CASE OF ERROR
         BAL       R14,DCOM            CHECK IF INTEGER VARIABLE
         L         R5,GTEMP2           RESTORE R5 - NO ERROR
         OI        VB2,TYPE+USAGE
         LA        R8,GCFULL           ERROR RETURN FOR DERGO3     V1L4
         IF        (VB2,ON,B2AS),DERGO3
GCFULL   IF        (CMOSWTCH,ON),GCABD IF WE HAVE HAD A MEMORY OVERFLOW
*                                      DO NOT STORE ANYTHING IN AREA
*                                      POINTED TO BY R5
         L         R14,GTEMP1          LOAD THE VALUE R5 HAD BEFORE
*                                      OBJ CODE WAS OUTPUTTED
         STH       R3,ZR14+2           STORE PTR TO INDEX
         LR        R2,R5
         S         R2,CBAR11           DISPLACEMENT
         STH       R2,ZR14+GCMOD3-GCMOD1+2
         STH       R7,ZR14+GCMOD5-GCMOD1+2
         IF        (CUNDEFSW,NEQ,X'00'),GCA
         MVC       ZR14+GCMOD4-GCMOD1(4),GCMOD8  SKIP TEST UNDEF VAR
GCA      IF        (VB2,Z,B2COM+B2EQV),GCABC TEST FOR INDIRECT ADDRESS
         LA        R14,4(R14)
         MVC       ZR14(2),=X'5822'    SET UP LOAD FOR INDIRECT ADDRESS
GCABC    IF        (VB1,Z,IHALF),GCABD   TEST HALF INTEGER
         MVI       ZR14,LH             CHANGE LOAD TO LOAD HALF
GCABD    AH        RS,SLINK            NEXT LINE IN STACK AND
         IF        (SOPTR,NE,TERM),GERSX1 TEST FOR TERMINATER
         CRET
GCFXER   L         R5,GTEMP1                                       V1L2
         B         GERSX1                                          V1L2
***********************************************************************
*        OBJECT CODE FOR COMPUTED GO TO                               *
***********************************************************************
GCMOD1   L         R2,*-*                LOAD VALUE OF INDEX
GCMOD2   NOP       0(R2,0)
         LTR       R2,R2               TEST IF POSITIVE
GCMOD3   LA        R3,*-*(R11)         ADDRESS OF NEXT FORTRAN STAT
GCMOD4   BAL       R14,XCGTEST         TEST FOR UNDEF VAR
GCMOD5   LA        R4,*-*              LOAD MAX INDEX
         CR        R2,R4
         BHR       R3                  BRANCH TO NEXT FORTRAN STA
         SLA       R2,2                SET UP FOR EX INSTR.
GCMOD6   EX        0,GCMOD6A-4(R2)     PICK PROPER STA NO
         BR        R3
GCMOD6A  EQU       *
***********************************************************************
GCMOD7   L         R3,*-*              STA NO FILLED IN BY ABOVE
***********************************************************************
*        THIS INSTRUCTION GOES IN AT GCMOD4
GCMOD8   BNPR      R3                  BRANCH TO NEXT FORTRAN STAT
         NOPR      0
***********************************************************************
GCBXBT   B         XBOOT
GTEMP1   DC        F'0'
GTEMP2   DC        F'0'
         $FREE     R11                                             V1L5
         SPACE     2
***********************************************************************
****     A S S I G N E D  G O T O                                  ****
***********************************************************************
         SPACE     1
GASTA    MVI       CIFGOTSW,X'01'      NEXT STAT SHOULD BE NUMBERED
         USING     STAK,RS
         BALR      R11,0
         USING     *,R11
*        SECTION TO ALLOW BRANCHING WITHIN OBJ CODE
         MVI       GAMOD1,L            INITIALIZE A LOAD INSTRUCTION
         MVC       GAMOD2(2),=X'4700'  FOR NO-OP CODE
         LR        R3,R5
         S         R3,CBAR11
         O         R3,=X'0000B000'     OR IN BASE REG 11
         LA        R3,GAMOD3+4-GAMOD1(R3)    INCREASE DISPL
         STH       R3,GAMOD4+2         B INSTUCTION
         LA        R3,GAMOD4+4-(GAMOD3+4)(R3)  INCREASE DISPL
         STH       R3,GAMOD3+2         LA INSTRUCTION
*        LOOKUP OF AN ASSIGNED VARIABLE
         BAL       R8,DINTA            NOTE: R8 IS ALSO ERROR RETURN
         USING     VLIST,R15
         DFIXU     GAMOD1              STORE POINTER TO VARIABLE
         IF        (VB2,Z,B2COM+B2EQV),GAABC   IS VAR COMMONED OR EQUIV
         MVC       GAMOD2(2),=X'5830'  LOAD FOR COM & EQUIV
         IF        (VB1,Z,IHALF),GAABD   TEST HALF WORD INTEGER
         MVI       GAMOD2,LH           CHANGE THE L TO LH
         B         GAABD
GAABC    IF        (VB1,Z,IHALF),GAABD  TEST HALF WORD INTEGER
         MVI       GAMOD1,LH
GAABD    OUTPUT    GAMOD4+4-GAMOD1,GAMOD1 OUTPUT INITIAL PART OF OBJ CD
         AH        RS,SLINK            NEXT LINE IN STACK
         IF        (SOPTR,EQ,COM),GAAA IS IT A COMMA
         BAL       R8,DERSX1           THE OPERATER SHOULD BE A ','
GAAA     IF        (SCODE,EQ,PHI),GALOOP  TEST FOR PHI
         BAL       R8,DERSX0           THERE IS SOMETHING BETWEEN ','
*                                      AND '(' IN ASSIGNED GO TO
GALOOP   AH        RS,SLINK            NEXT LINE OF STACK
         BAL       R11,GCHKLFBR        GO CHECK FOR '('
         USING     *,R11
         AH        RS,SLINK            NEXT LINE
         IF        (SOPTR,NE,COM),GARTPAR  TEST FOR COMMA
GAB      IF        (SCODE,O,CCONS),GABAL
         BAL       R8,DERSX6           MISSING STA NO
         BR        R11                 GO TO NEXT LINE
GABAL    DCSTN2                        LOOKUP AND CHECK STA NO
         DFIXU     GAMOD5              STORE POINTER TO STA NO
         OUTPUT    4,GAMOD5            OUTPUT A LOAD FOR EACH STA NO
         BR        R11
GCHKLFBR IF        (SOPTR,EQ,LBRK),GAB CHECK FOR INITIAL '('
         LA        R8,GAB
         B         DERSX1              THE '(' WAS NOT THERE
GARTPAR  IF        (SOPTR,NE,RBRK),GERSX1
         OUTPUT    4,GAOBJ             OUTPUT BRANCH TO ERROR
         AH        RS,SLINK            NEXT LINE
         IF        (SOPTR,NE,TERM),GERSX1 TEST FOR TERMINATER
         CRET
         SPACE     1
***********************************************************************
*        OBJECT FOR ASSIGNED GO TO                                    *
***********************************************************************
GAMOD1   L         R3,*-*              LOAD NAME
GAMOD2   L         R3,ZR3              FOR COMMON & EQUIV VAR
GAMOD3   LA        R15,GAMOD4+4        LOAD ADDRESS OF LIST STA NO
         EX        0,0(,R15)           PICK OUT 1 OF THE STA NO
         CR        R2,R3               SEARCH FOR REQUIRED STA NO
         BER       R3                  BRANCH IF STA NO FOUND
         LA        R15,4(,R15)         BUMP R15 FOR NEXT STA NO
GAMOD4   B         GAMOD3+4
***********************************************************************
GAMOD5   L         R2,*-*              THIS STA NO IS FILLED IN
***********************************************************************
GAOBJ    B         XERRGO4
***********************************************************************
         TITLE     'ARITHMETIC IF STATEMENT'
***********************************************************************
*        ARITHMETIC IF STATEMENT
***********************************************************************
*        LOOKS AFTER OBJECT CODE FOR ARITHMETIC-IF BRANCHING
*        THE CONDITION CODE HAS BEEN SET AND THE OBJECT CODE MUST
*        TEST THE C.C. AND BRANCH TO THE CORRECT STA NO
         SPACE     1
GIF      CENT      DSAVER
         USING     STAK,RS
         MVI       CIFGOTSW,X'01'      NEXT STA MUST BE NUMBERED
         OI        DOEND,X'01'         INDICATE IF CAN'T END DO
*        ARITH HAS CHECKED )  R1 POINTS TO STACK
         LA        R7,0                INITIALIZE INDEX
         LA        R0,GIMOD2-GIMOD1    INCREMENT
         LA        R1,GIMOD3-GIMOD1    TOPVALUE
         B         GIARDA              GO TEST FOR CONSTANT
GICOMMA  IF        (SOPTR,NE,COM),GERSX1 TEST FOR COMMA
GIARDA   IF        (SCODE,O,CCONS),GIER2  TEST FOR CONST.
         LA        R8,GILINE
         B         DERSX6              STATEMENT NUMBER MISSING
GIER2    DCSTN2                        LOOKUP AND CHECK STA NO
         USING     ZR13,R13
         LM        R0,R1,ZSV0          RESTORE REG 0 AND 1
         USING     DSAVER,R13
         STH       R3,GIMOD1+2(R7)     STORE POINTER
GILINE   AH        RS,SLINK            NEXT LINE
         BXLE      R7,R0,GICOMMA       LOOP
         IF        (SOPTR,NE,TERM),GERSX1 TEST FOR TERMINATER
         OUTPUT    GIMEND-GIMOD1,GIMOD1 OUTPUT OBJECT CODE
         CRET
*
         SPACE     1
***********************************************************************
****     OBJECT CODE                                               ****
***********************************************************************
GIMOD1   L         R2,*-*
         BLR       R2
GIMOD2   L         R2,*-*
         BER       R2
GIMOD3   L         R2,*-*
         BHR       R2
GIMEND   EQU       *
***********************************************************************
         TITLE     'ASSIGN STATEMENT'
***********************************************************************
*        ASSIGN STATEMENT
***********************************************************************
         SPACE     1
GASSN    CENT      DSAVER
         USING     STAK,RS
         MVI       GASMOD3,ST           MAKE OBJ CODE FULL WORD
         IF        (SCODE,O,CCONS),GASS1  TEST FOR CONST.
         $ERROR    (BOOT,SX,6,SYMRS,INVAL),GASOK1 NO CONSTANT FOUNDV1L5
GASS1    OI        DOSWCH,X'02'        INDICATE AN ASSIGN STA
         DCSTN2                        LOOKUP AND CHECK STA NO
         DFIXU     GASMOD1             STORE POINTER TO STA NO
GASOK1   AH        RS,SLINK            NEXT LINE
         CLC       SOPND(2),=C'TO'     CHECK FOR 'TO'
         BE        GASOK3
         $ERROR    (BOOT,ST,3,SYMRS,INVAL),CRET UNDECODABLE STAT   V1L5
GASOK3   SETSTACK  'TO'                GET RID OF 'TO' IN STACK
         LA        R8,GASER4           ERROR RETURN
         IF        (SCODE,NZ,MNAME),DERSX7  TEST FOR SYMBOL
         IF        (SCODE,Z,X'0F'),DERSX7  TEST ZERO LENGTH
*                  4(RS) NOW ADDRESSES THE VARIABLE
*        LOOKUP ASSIGNED VARIABLE
         BAL       R8,DINTA            NOTE: R8 IS ALSO THE ERROR RETRN
         USING     VLIST,R15
         DFIXU     GASMOD3             STORE POINTER TO VARIABLE
         IF        (VB1,Z,IHALF),GASER4  TEST HALF WORD VARIABLE
         $ERROR    (BOOT,GO,5,NAMR15,INVAL)  AN ASSIGNED VARIABLE  V1L5
*                                      CANNOT BE HALF WORD VARIABLE
GASER4   AH        RS,SLINK            NEXT LINE
         IF        (SOPTR,NE,TERM),GERSX1
         OUTPUT    4,GASMOD1
         IF        (VB2,NZ,B2COM+B2EQV),GASCOMEQ  FOR COM AND EQV
         OUTPUT    4,GASMOD3
         CRET
         SPACE     1
GASCOMEQ MVC       GASMOD4+2(2),GASMOD3+2 MOVE THE PTR TO THE VARIABLE
         OUTPUT    8,GASMOD4
         CRET
         SPACE     1
***********************************************************************
****     OBJECT CODE FOR ASSIGN STATEMENT                          ****
***********************************************************************
GASMOD1  L         R3,*-*              LOAD ADDRESS OF STA NO
GASMOD3  ST        R3,*-*              STORE STA NO IN VAR.
*        OBJECT CODE FOR COMMONED OR EQUIVALENCED
*ASMOD1  L         R3,*-*              LOAD ADDRESS OF STA NO
GASMOD4  L         R2,*-*              ADDRESS OF VAR
         ST        R3,ZR2              STORE IN VAR
***********************************************************************
         TITLE     'DO ROUTINES'
***********************************************************************
****     D O  S T A T E M E N T                                    ****
***********************************************************************
         SPACE     1
DTOPSTK  EQU       CDOBEG
         SPACE     1
*        THIS SECTION HANDLES:
*             DO STATEMENTS
*             STATEMENT NO. CHECKING FOR STA NO IN COLS 1-5
*             IMPLIED DO LOOPS IN I/O STATEMENTS
         SPACE     1
DODO     CENT      DSAVER
         USING     STAK,RS
*        R7 IS A PTR TO DOSTACK OR I/O STACK DEPENDING ON WHETHER
*        COMPILING A REGULAR OR IMPLIED (I/O) DO LOOP
         BAL       R8,DINTSTK          INITIALIZE DO STACKS
*        R1 HAS ZERO IN IT DUE TO DINTSTK
         MVI       DOIO,X'00'          NOT AN I/O STATEMENT
         OI        DOEND,X'01'         INDICATE DO STA CANT END DOLOOP
*        DONO=DONO+1
         LH        R8,CDONO
         LA        R8,1(,R8)           BUMP DONO
         STH       R8,CDONO
*        WHEN  DONO .GT. 256 WILL GET CP-2 ERRORS
*        CREATE STACK ENTRY FOR THIS DO STATEMENT
         L         R7,DTOPSTK          LOAD POINTER TO DO STACK
         USING     DOSTACK,R7
         LH        R4,DOLINKF(RO)      LOAD LINK FORWARD
         CR        R1,R4               R1 IS ZERO DUE TO DINTSTK
         BNE       DOOLDL              ENTRY THERE ALREADY
         AIF       ('&STR' NE 'USE').DSTR2                         ST1
DONEWL   GETSYM    24,CHECK            GRAB 24 BYTES FOR NEW ENTRY ST1
         AGO       .DSTR3                                          ST1
.DSTR2   ANOP                                                      ST1
DONEWL   GETSYM    20,CHECK            GRAB 20 BYTES FOR NEW ENTRY
.DSTR3   ANOP                                                      ST1
         LR        R4,R6
         SR        R4,R7
         STH       R4,DOLINKF(RO)      STORE LINK FORWARD
         ST        R6,DTOPSTK          STORE NEW TOP OF STACK
         $FREE     R7                                              V1L5
         USING     DOSTACK,R6
         LPR       R4,R4               MAKE LINKS SO YOU ALWAYS ADD
         STH       R4,DOLINKB(RO)
         STH       R1,DOLINKF(RO)      ZERO LINK FORWARD
         B         DOMERG
DOOLDL   AR        R4,R7
         ST        R4,DTOPSTK          STORE NEW TOP OF STACK
DOMERG   EQU       *
         SNAPS     SYMTAB,0(RO,R6),200
         IF        (SCODE,O,CCONS),DOK1  TEST FOR STA NO
         $ERROR    (BOOT,SX,6,SYMRS,INVAL),DOK2 STA NO MISSING     V1L5
         USING     DOSTACK,R7
DOK1     L         R7,DTOPSTK          LOAD POINTER TO DO STACK INTO R7
         AIF       ('&STR' NE 'USE').DSTR4                         ST1
         LH        R0,XISN             GET ISN FOR DO STACK        ST1
         ST        R0,DOISN                                        ST1
.DSTR4   ANOP                                                      ST1
         L         R0,SOPND            LOAD STA NO
         ST        R0,DOSTANO(RO)      STORE STA NO IN DOSTACK
         STC       R8,DOPSEUD(RO)      STORE CDONO IN DO STACK
         SNAPS     DTOPSTK,DTOPSTK,4
         OI        DOSWCH,X'01'        INDICATES A DO STA
         DCSTN2                        LOOKUP AND CHECK STA NO
DOK2     AH        RS,SLINK            NEXT LINE
         B         DER4
         SPACE     1
*        ENTRY FOR DOIO STATEMENT
*        R9 POINTS TO INDEX OF IMPLIED DO
         SPACE     1
DOIOENT  CENT      DSAVER
         BAL       R8,DINTSTK          INITIALIZE STACK
*        R1 HAS ZERO DUE TO DINTSTK
         MVI       DATASTSW,X'00'      INITIALIZE THIS SWITCH
         MVI       DOIO,X'01'          INDICATE I/O STATEMENT
         L         R7,DOIOCT           LOAD PTR TO I/O DO STACK
         LH        R4,DOLINKF(RO)      LOAD LINK FORWARD
         CR        R1,R4               COMPARE TO ZERO
         BNE       DIOLDL              LINK ALREADY THERE
DINEWL   GETSYM    16,CHECK            GET 16 BYTES FOR I/O STACK
         LR        R4,R6
         SR        R4,R7
         STH       R4,DOLINKF(RO)      STORE LINK FORWARD
         ST        R6,DOIOCT           STORE NEW PTR TO TOP OF STACK
         $FREE     R7                                              V1L5
         USING     DOSTACK,R6
         LPR       R4,R4
         STH       R4,DOLINKB(RO)      LINK BACK
         STH       R1,DOLINKF(RO)      ZERO LINK FORWARD
         B         DIMERG
DIOLDL   AR        R4,R7
         ST        R4,DOIOCT           STORE NEW PTR TO TOP OF STACK
         $FREE     R6                                              V1L5
DIMERG   L         R7,DOIOCT           PTR TO TOP OF I/O STACK IN R7
         USING     DOSTACK,R7
         SNAPS     DOIOCT,DOIOCT,4
         SNAPS     SYMTB,0(RO,R6),200
DER4     BALR      R11,0
         USING     *,R11
         LA        R8,DFULL            ERROR RETURN
         IF        (SCODE,NZ,MNAME),DERSX7 TEST FOR NAME
         TM        SOPTR,X'87'         CHECK FOR INVALID OPERATOR  V1L5
         BO        DERSX7              ISSUE SX-7 IF FOUND         V1L5
         IF        (SCODE,Z,X'0F'),DERSX7   TEST LENGTH
         SPACE     3
****     I N D E X                                                 ****
         SPACE     2
*        LOOKUP DO PARAMETER
         BAL       R8,DINTCI           LOOKUP INITIAL PARAMETER
         USING     VLIST,R15
         MVI       DOPARM,X'00'        ZERO SWITCHES
         MVI       DOPARMH,X'00'
*        INITIALIZE OBJECT CODE
         MVI       DMOD1,L
         MVI       DMOD3,L
         MVI       DMOD4,L
         MVI       DMOD6,ST
         MVI       DMOD1A,L
         MVI       DMOD3A,L
         MVI       DMOD4A,L
         MVI       DMOD6B,ST
         DFIXU     (DMOD6,DMOD6A)      STORE PTR TO INDEX IN OBJ CODE
         ST        R15,DOINDXA         STORE INDEX POINTER
         IF        (VB2,Z,B2COM+B2EQV),DOHALFA TEST INDEX COM OR EQV
*        COMMONED OR EQUIVALENCED
         OI        DOPARM,X'80'
         IF        (VB1,Z,IHALF),DFULL
         MVI       DMOD6B,STH
         OI        DOPARM,X'40'
         B         DFULL
*        NOT COMMONED OR EQUIVALENCED
DOHALFA  IF        (VB1,Z,IHALF),DFULL   TEST HALF WORD INTEGER
         MVI       DMOD6,STH
         OI        DOPARM,X'40'
DFULL    STH       R3,DOINDX(RO)       STORE POINTER TO INDEX
         AH        RS,SLINK
         IF        (SOPTR,EQ,EQUAL),DER7
         $ERROR    (BOOT,ST,3,DELRS,UNEX),DOBRANCH UNDECODABLE     V1L5
         SPACE     3
****     I N I T I A L                                             ****
         SPACE     2
DER7     LA        R8,DFULLA           ERROR RETURN
         IF        (SCODE,Z,MNAME),DALPHA  TEST FOR NAME
         IF        (SCODE,Z,CCONS),DERSX5 TEST FOR CONSTANT
         LOOKUP    INTEGER             COLLECT CONSTANT
         DFIXU     DMOD4               POINTER TO INITIAL
         L         R4,CONSTANT         PUT VALUE OF INITIAL IN R4
         LTR       R4,R4               TEST IF POSITIVE
         ST        R4,DOINITVL
         BNZR      R8                  INITIAL IS NOT ZERO
         B         DERDO5              INITIAL PARAMETER WAS ZERO
DALPHA   IF        (SCODE,NM,X'0F'),DERSX8 TEST FOR ZERO LENGTH
*        X'01' IN DATASTSW MEANS WE HAD AT LEAST ONE VARIABLE PARAMETER
*        IT IS USED ONLY IN DATA STATEMENTS
         MVI       DATASTSW,X'01'
***      LOOKUP DO PARAMETER
         BAL       R8,DINTCO
         USING     VLIST,R15
         DFIXU     DMOD4               STORE POINTER TO INITIAL
         OI        DOPARMH,X'80'       INITIAL A VAR
         IF        (VB2,Z,B2COM+B2EQV),DOHALFC
*        EQUIVALENCED OR COMMONED
         OI        DOPARMH,X'40'
         IF        (VB1,Z,IHALF),DFULLA
         MVI       DMOD4A,LH
         OI        DOPARMH,X'20'
         B         DFULLA
*        NOT COMMONED OR EQUIVALENCED
DOHALFC  IF        (VB1,Z,IHALF),DFULLA
         MVI       DMOD4,LH
         OI        DOPARMH,X'20'
DFULLA   STH       R3,DOINIT(RO)       STORE POINTER IN STACK
         AH        RS,SLINK            NEXT LINE
         IF        (SOPTR,EQ,COM),DER9  TEST FOR COMMA
         LA        R8,DER9
         BNE       DERSX1              MISSING COMMA
         SPACE     3
****     T E S T  V A L U E                                        ****
         SPACE     2
DER9     LA        R8,DFULLB           ERROR RETURN
         IF        (SCODE,Z,MNAME),DALPHB  TEST FOR NAME
         IF        (SCODE,Z,CCONS),DERSX5  TEST FOR CONST.
         LOOKUP    INTEGER             COLLECT CONSTANT
         DFIXU     DMOD3               TESTVALUE
         L         R4,DOINITVL
         MVC       DOINITVL(4),CONSTANT
         TM        DOPARMH,X'80'       TEST IF INITIAL WAS CONST
         BO        DER13
         C         R4,CONSTANT
         BL        DER13
         $ERROR    (WARN,DO,8,SYMRS)   INITIAL IS GT TESTVALUE     V1L5
DER13    L         R4,CONSTANT
         LTR       R4,R4               IS TESTVALUE POSITIVE?
         BPR       R8                  TESTVALUE IS OK
         B         DERDO5              TESTVALUE IS ZERO
DALPHB   IF        (SCODE,NM,X'0F'),DERSX8 TEST LENGTH OF VARIABLE
         MVI       DATASTSW,X'01'      INDICATES A VARIABLE PARAMETER
*        LOOKUP DO PARAMETER
         BAL       R8,DINTCO
         USING     VLIST,R15
         DFIXU     DMOD3               TEST VALUE
         OI        DOPARM,X'20'        INDICATE TESTVALUE A VARIABLE
         IF        (VB2,Z,B2COM+B2EQV),DOHALFE
*        EQUIVALENCED OR COMMONED
         OI        DOPARM,X'10'
         IF        (VB1,Z,IHALF),DFULLB
         MVI       DMOD3A,LH
         OI        DOPARM,X'08'
         B         DFULLB
*        NOT COMMONED OR EQUIVALENCED
DOHALFE  IF        (VB1,Z,IHALF),DFULLB
         MVI       DMOD3,LH
         OI        DOPARM,X'08'
DFULLB   EQU       *
         STH       R3,DOTEST(RO)       STORE PTR TO TESTVALUE IN STACK
         AH        RS,SLINK            NEXT LINE
         MVI       DIMPLY+1,X'F0'      MAKE A B INSTRUCTION
         IF        (SOPTR,EQ,COM),DNIMP  THIRD PARAMETER IS NOT IMPLIED
         MVI       DIMPLY+1,X'00'      MAKE A NOP INSTUCTION
         B         DNIO
         SPACE     3
****     I N C R E M E N T                                         ****
         SPACE     2
DNIMP    LA        R8,DFULLC           ERROR RETURN
         IF        (SCODE,Z,MNAME),DALPHC  TEST FOR NAME
         IF        (SCODE,Z,CCONS),DERSX5  TEST FOR CONST.
         LOOKUP    INTEGER             COLLECT CONSTANT
         DFIXU     DMOD1
         IF        (DOPARM,ON,X'20'),DER14   TEST TESTVAL FOR CONST
         L         R4,DOINITVL
         C         R4,CONSTANT
         BH        DER14
         $ERROR    (WARN,DO,8,SYMRS)   INCREMENT GT TESTVALUE      V1L5
DER14    L         R4,CONSTANT
         LTR       R4,R4               IS INCREMENT POSITIVE?
         BPR       R8                  INCREMENT IS OK
         B         DERDO5              INCREMENT IS ZERO           V1L0