SCAN     TITLE     'SCAN     FORTRAN STATEMENT SCAN ROUTINE'
         MACRO
         SETUP     &THING,&ADDR,&SWITTH,&ADDRF,&SWITTHF
         LCLC      &CH
         LCLA      &NN
&CH      SETC      '&THING'(2,4)
&NN      SETA      K'&THING-3
S$&CH    DC        AL1(&NN)
         DC        AL1(&SWITTH)
         OFFSET    DC,AL3,&ADDR
         EXTRN     &ADDR
         DC        C&THING
         AIF       (T'&ADDRF EQ 'O').END
&NN      SETA      &NN+8
         DC        AL1(&NN)
         DC        AL1(&SWITTHF)
         DC        AL3(&ADDRF)
         EXTRN     &ADDRF
.END     ANOP
         MEND
         SPACE     3
         MACRO
&NAME    SHASH     &THING
         LCLC      &CH
&CH      SETC      '&THING'(2,4)
         AIF       ('&CH' NE 'END''').PASS
&CH      SETC      '&THING'(2,3)
.PASS    ANOP
&NAME    DC        AL2(S$&CH-STAB)
         MEND
         SPACE     3
         MACRO
&NAME    SAWAYTO    &N,&M
&NAME    L          R3,SWITCK
         IC         R3,&N-1(R3)
         BAL       R14,&M.(R3)
         MEND
         SPACE     3
         MACRO
&NAME    SFIXS
&NAME    AR        R15,R8
         LA        R8,4
         MVI       SOPTR,NIL
         MEND
         SPACE     3
         MACRO
&NAME    SCODE
&NAME    LR        R0,R8
         SRA       R0,2
         BCTR      R0,R0
         AR        R0,R4
         STC       R0,SCD
         MEND
         SPACE     3
         MACRO
&NAME    LINK1
&NAME    LA        R4,STAK(R8)
         MVC       0(3,R4),KBL6
         LA        R8,3(,R8)
         N         R8,KM0029
         STH       R8,SLINK
         MEND
         SPACE     3
         MACRO
&NAME    LINK2
&NAME    STH       R8,SLINK
         MEND
         SPACE     3
         MACRO
&ANME    STORE
&ANME    A         R3,SNCOUNT
         ST        R3,STAK(R8)
         LA        R8,4(,R8)
         MEND
         SPACE     3
         MACRO
&NAME    SCONV
&NAME    SR        R2,R2
         L         R3,SNLIST
         ST        R2,SNLIST
         SLDL      R2,4
         O         R3,KF12
         STM       R2,R3,SCONV1
         CVB       R3,SCONV1
         MEND
         SPACE     3
         MACRO
&NAME    SERRON    &CODE
&NAME    OI        SERRVECT+SS&CODE,ST&CODE
         MEND
         SPACE     3
         MACRO
&NAME    SETTERR   &MESS
         GBLA      &X,&Y
SS&NAME  EQU       &X
ST&NAME  EQU       SZ&Y
&Y       SETA      &Y+1
         AIF       (&Y NE 8).END
&Y       SETA      0
&X       SETA      &X+1
.END     ANOP
&NAME    ERRCODE   &MESS
         MEND
         EJECT
         GBLA      &X,&Y
         COPY      OPTIONS
         $PUNCH    SCAN                                            DVS2
&X       SETA      0
&Y       SETA      0
SZ0      EQU       X'80'
SZ1      EQU       X'40'
SZ2      EQU       X'20'
SZ3      EQU       X'10'
SZ4      EQU       X'08'
SZ5      EQU       X'04'
SZ6      EQU       X'02'
SZ7      EQU       X'01'
SCANA    CSECT
         ENTRY     SCAN
         EXTRN     ARITH,DODO,DCSTN1,GIFIF,IFLOG,LMAIN,FORMAT
&DECK    SETC      'SCAN'
         PRINT     OFF
         COPY      EXTRN
         COPY      CDEFN
STARTA   DSECT
         COPY      STARTA
COMMR    DSECT
         COPY      COMMR
         ERRTABLE
         PRINT     ON,NOGEN
         TITLE     'SCAN ROUTINE'
STABLE   DSECT               FOR KEY WORD TABLE
SWLEN    DS        X         LENGTH OF KEY WORD - 15
SWSWT    DS        X         SWITCH FOR EACH STATEMENT TYPE
SWADDR1  DS        3X        ADDRESS OF STATEMENT PROCESSOR
SWTHING  DS        X         THE ACTUAL CHARACTERS OF THE KEY WORD
SCHAR    DSECT               USED TO PICK UP EACH CHARACTER
         SPACE     3
SCANA    CSECT
CHBEG1   EQU       CHBEG
CHEND1   EQU       CHEND
         USING     STAK,R15
         USING     SCHAR,R1
         EJECT
***********************************************************************
*        ENTRY POINT FOR SCAN
***********************************************************************
         PRINT     ON,GEN                                          V1L5
SCAN     CENT      SAVER
         MVI       SIHATULS,ON                                     V1L3
         SR        R2,R2               USED AS A 1 BYTE REGISTER
         ST        R2,SERRVECT         ZERO OUT ERROR VECTOR
         IC        R2,XMODEKP          GET CHARACTER MODE          V1L5
*********  EITHER SET UP A BCDIC OR EBCDIC TABLE FOR SCANNING OR
*********  LEAVE THE TABLE AS IT WAS ON THE LAST ENTRY TO SCAN
         EX        R0,STABCHAR(R2)
         EJECT
**********************************************************************
*        MAIN HAS ALREADY READ THE JOB CARD
*        SCAN WILL READ UNTIL IT GETS     A FORTRAN STATEMENT
**********************************************************************
*        FREE      R11
*        USING     SREAD,R11
SREAD    BAL       R14,CREAD           READ ANOTHER CARD
         B         SCONTRL1            ITS A CONTROL CARD
         B         SERRCC3             A CONTINUATION CARD (ERROR)
         B         SMSTACK1            NORMAL STATEMENT            V1L3
         B         SLOADEND            OBJECT DECK CARD
         BAL       R14,SPRINT          COMMENT  CARD
         B         SREAD               GO READ ANOTHER CARD
STABCHAR MVC       SBCDEBC(20),SBCDTAB
         MVC       SBCDEBC(20),SEBCTAB
         B         SREAD
SMSTACK1 MVI       SIHATULS,OFF                                    V1L3
         B         SMSTACK                                         V1L3
         SPACE     3
*        FREE      R11
*        USING     SMREAD,R11
***********************************************************************
*        NORMAL SCAN READ OF A STATEMENT
***********************************************************************
SMREAD   BAL       R14,CREAD
         B         SCONTRL2            A CONTROL CARD
         B         SMCONTCD            A CONTINUATION CARD
         B         SXNEXT              A NEW STATEMENT
         B         SLOAD               OBJECT DECK CARD
SENDCARD BAL       R14,SPRINT          OK PRINT THE CARD
         MVI       SIHPALNE,OFF        WELL WE'LL PRINT NEXT TIME
         B         SMREAD              PRINT IT AND READ ANOTHER CARD
SPAN     EQU       SMREAD+2
         EJECT
***********************************************************************
*        READ SERVICE ROUTINES
*
***********************************************************************
SCONTRL1 EX        R0,COPENTRY         IS IT A $ENTRY CARD
         AIF       ('&CONTROL'(1,1) EQ '&CONTROL').READC           V1L4
         BE        SERRJB0                                         V1L4
         EX        R0,COPCENTR         CHECK FOR C$ENTRY           V1L4
.READC   ANOP                                                      V1L4
         BNE       SCONTRL3            NO
SERRJB0  $ERROR    (NOEX,JB,0,CHRR1,UNEX),CRET                     V1L5
SCONTRL2 EQU       *                                               V1L4
         NI        SSW,X'FF'-SLCTRL    TURN OFF CONTROL CARD SW    V1L5
         EX        R0,COPENTRY         IS IT $ENTRY                V1L4
         AIF       ('&CONTROL'(1,1) EQ '&CONTROL').CHKCENT         V1L4
         BE        CHKCC3                                          V1L4
         EX        R0,COPCENTR                                     V1L4
.CHKCENT ANOP                                                      V1L4
         BNE       SCONTRL3                                        V1L4
CHKCC3   EQU       *                                               V1L4
         IFALL   (SIHATULS,ON),(SERRVECT+SSSCC3,OFF,STSCC3),SDATA4 V1L4
SDATA3   BAL       R14,STIDY           CLEAN UP LAST STATEMENT
SDATA4   CRET                          RETURN TO CALLER
SCONTRL3 S         R14,KF4             TO RETURN TO SREAD OR SMREAD
         LA        R14,0(,R14)         OUT HIGH ORDER STUFF        V1L3
         EX        R0,COPJOB           A JOB CARD ?                V1L3
         BE        SJOBFND             BRA IF YES                  V1L3
         AIF       ('&CONTROL'(1,1) EQ '&CONTROL').CTR301          V1L4
         EX        R0,COPCJOB                                      V1L4
         BE        SJOBFND                                         V1L4
.CTR301  ANOP                                                      V1L4
         EX        R0,COPSTOP                                      V1L4
         AIF       ('&CONTROL'(1,1) EQ '&CONTROL').CTR302          V1L4
         BE        SJOBFND                                         V1L4
         EX        R0,COPCSTOP         CHECK FOR C$STOP            V1L4
.CTR302  ANOP                                                      V1L4
         BNE       SCONTRL4                                        V1L4
SJOBFND  THEN      (CIHGACRD,ON)       SET SW ON                   V1L4
         C         R14,=A(SMREAD)      FROM SMREAD?                V1L4
         BNE       SERRJB0             BRANCH IF NOT               V1L4
         IF        (SIHATULS,ON),SERRJB0   LAST STAT. TIDIED       V1L3
         BAL       R14,STIDY           TIDY UP LAST STATEMENT      V1L3
         B         SERRJB0             GO ISSUE ERROR              V1L3
SCONTRL4 IF        (SIHATULS,ON),SCONTRL5  LAST STAT. TIDIED       V1L3
         ST        R14,XCMT1           NO                          V1L3
         BAL       R14,STIDY           DO IT                       V1L3
         L         R14,XCMT1                                       V1L3
         MVI       SIHATULS,ON         INDICATE IT DONE            V1L3
SCONTRL5 EQU       *                                               V1L3
         AIF       ('&CNTLIST' EQ 'OMIT').SCONTR0                  V1L2
         OI        SSW,SLCTRL          PROCESSING CONTROL CARD     V1L5
         CLC       XCARD+L'XCONTROL(8),=C'PRINTOFF' PRINTOFF CARD? V1L1
         BNE       SAROUND1            NO                          V1L1
         LR        R15,R14             SAVE REG FOR RETURN         V1L5
         BAL       R14,SPRINT$         GO PRINT IT                 V1L5
         MVI       CLISTSW,X'00'       SET SW TO SUPPRESS PRINTING V1L5
         BR        R15                 RETURN                      V1L5
SAROUND1 CLC       XCARD+L'XCONTROL(7),=C'PRINTON' PRINTON CARD ?  V1L1
         BNE       SAROUND2            NO                          V1L1
SOKPRINT MVI       CLISTSW,B'10000000' SET LIST SW ON              V1L1
         B         SPRINT$             AND OFF TO PRINT CARD       V1L2
SAROUND2 CLC       XCARD+L'XCONTROL(5),=C'EJECT' AN EJECT CARD ?   V1L1
         BNE       SAROUND3            NO                          V1L1
         MVI       XCARD1,C' '         BLANK OUT BUFFER            V1L5
         MVC       XCARD1+1(89),XCARD1                             V1L5
         MVI       XCARD1,C'1'         SET TO SKIP TO NEW PAGE     V1L1
         B         SPRINT$             EJECT& RETURN TO SMREAD     V1L5
SAROUND3 CLC       XCARD+L'XCONTROL(5),=C'SPACE' A SPACE CARD ?    V1L1
         BNE       SAROUND5            NO                          V1L1
         OI        SSW,SPCARD          NOW PROCESSING $SPACE CARD  V1L5
         LA        R1,XCARD+L'XCONTROL+6   POINT R1 PAST $SPACE    V1L5
         LA        R2,7                SCAN NEXT 6 COLS FOR #'S    V1L5
         MVI       XCARD+13,X'FF'      SET SCAN TERMINATOR         V1L5
         LR        R15,R14             SAVE RETURN ADDRESS         V1L5
         BAL       R3,STLOOP3          SCAN & RETURN # IN R9       V1L5
         NI        SSW,X'FF'-SPCARD    TURN OFF SPACE SWITCH       V1L5
         MVI       XCARD1,C' '         BLANK OUT BUFFER            V1L5
         MVC       XCARD1+1(89),XCARD1                             V1L5
         SRDA      R8,32               PREPARE FOR DIVIDE          V1L5
         D         R8,KF3              N/3                         V1L5
         LTR       R9,R9               QUOTIENT = 0?               V1L5
         BZ        SPREM               YES -> CHECK REMAINDER      V1L5
         CH        R9,KH21             QUOTIENT > 21? (63 SP MAX)  V1L5
         BH        SPACE1              YES -> SKIP 1 LINE ONLY     V1L5
SPN      DS        0H                                              V1L5
         MVI       XCARD1,C'-'         SPACE 3 LINES               V1L5
         BAL       R14,SPRINT$         UNTIL COUNT EXHAUSTED       V1L5
         BCT       R9,SPN                                          V1L5
SPREM    DS        0H                                              V1L5
         BCTR      R8,0                REMAINDER -1                V1L5
         LTR       R8,R8               IF +VE FALL THRU            V1L5
         BNP       SPACE1              ELSE BR TO SKIP LAST LINE   V1L5
         MVI       XCARD1,C'0'         SPACE 2                     V1L5
         BAL       R14,SPRINT$                                     V1L5
         BR        R15                                             V1L5
SPACE1   DS        0H                                              V1L5
         MVI       XCARD1,C' '         SPACE 1                     V1L5
         BAL       R14,SPRINT$                                     V1L5
         BR        R15                                             V1L5
SAROUND5 EQU       *                                               V1L1
.SCONTR0 ANOP                                                      V1L2
*./      DELETE    SEQ1=01990000,SEQ2=02000000                     V1L3
         AIF       ('&CNTCODE' EQ 'OMIT').SCONTR1                  V1L2
         CLC       XCARD+L'XCONTROL(5),=C'CHECK' A CHECK CARD ?    V1L2
         BNE       SAROUND6            BRANCH IF NOT               V1L2
         THEN      (CUNDEFSW,EQU,X'0F') SET UNDEF SW TO YES        V1L2
         MVI       XNOPDEFZ+1,BE       SET FOR BRANCH EQUAL        V1L2
         MVI       XNOPDEFN+1,BE       SET FOR BRANCH EQUAL        V1L2
         B         SPRINT$             AND TO PRINT                V1L2
SAROUND6 CLC       XCARD+L'XCONTROL(7),=C'NOCHECK' A NOCHECK CARD ?V1L2
         BNE       SAROUND7            BRANCH IF NOT               V1L2
         THEN      (CUNDEFSW,EQU,NOP)   SET TO NO UNDEF            V1L2
         MVI       XNOPDEFZ+1,NOP      SET FOR NOP                 V1L2
         MVI       XNOPDEFN+1,NOP      SET FOR NOP                 V1L2
         B         SPRINT$             AND OFF TO PRINT            V1L2
SAROUND7 CLC       XCARD+L'XCONTROL(4),=C'WARN' A WARN CARD ?      V1L2
         BNE       SAROUND8            TAKE BRANCH IF NOT          V1L2
         MVI       CWARNSW,ON          SET FOR WARN                V1L2
         B         SPRINT$             OFF TO PRINT THE CARD       V1L2
SAROUND8 CLC       XCARD+L'XCONTROL(6),=C'NOWARN' A NOWARN CARD ?  V1L2
         BNE       SAROUND9            TAKE BRANCH IF NOT          V1L2
         MVI       CWARNSW,OFF         SET TO NOWARN               V1L2
         B         SPRINT$             OFF TO PRINT THE CARD       V1L2
SAROUND9 EQU       *                                               V1L2
         CLC       XCARD+L'XCONTROL(3),=C'EXT'   $EXT ?            V1L3
         BNE       SNEXT1              NO                          V1L3
         MVI       CEXTNSW,ON          SET ON                      V1L3
         B         SPRINT$             OFF TO PRINT CARD           V1L3
SNEXT1   CLC       XCARD+L'XCONTROL(5),=C'NOEXT'  $NOEXT ?         V1L3
         BNE       SNEXT2                                          V1L3
         MVI       CEXTNSW,OFF         SET OFF                     V1L3
         B         SPRINT$                                         V1L3
SNEXT2   EQU       *                                               V1L3
.SCONTR1 ANOP                                                      V1L5
         AIF       ('&PROFILE' EQ 'OMIT').SPROF40                  V1L5
         CLC       XCARD+L'XCONTROL(6),=C'PROFON'  $PROFON ?       V1L5
         BNE       SNEXT3              NO                          V1L5
         OI        CCNTSW,XPROFON      TURN ON CCNTSW              V1L5
         MVI       XPROFILE+1,NOP      SET TO FALL THRU AT XTIME   V1L5
         OI        KOMPSW,SPROF1SW     INDICATE $PROFON ENCOUNTEREDV1L5
         B         SPRINT$                                         V1L5
SNEXT3   CLC       XCARD+L'XCONTROL(7),=C'PROFOFF' $PROFOFF ?      V1L5
         BNE       SNEXT4              NO                          V1L5
         NI        CCNTSW,X'FF'-XPROFON    TURN CCNTSW OFF         V1L5
         B         SPRINT$                                         V1L5
SNEXT4   DS        0H                                              V1L5
.SPROF40 ANOP                                                      V1L5
         CLC       XCARD+L'XCONTROL(7),=C'OPTIONS'  $OPTIONS ?     V1L5
         BNE       SNEXT5              NO                          V1L5
         THEN      (C$OPTSW,ON)        YES                         V1L5
         SPRIN     XCARD1,90           PRINT THE OPTIONS CARD      V1L5
         MVI       XCARD1,C' '         RESET CC CHARACTER          V1L5
         STM       R0,R15,XPRINTS      SAVE THE REGISTERS          V1L5
         L         R15,=V(BBEGJOB)     OFF TO ACCT TO              V1L5
         BALR      R14,R15             ANALYZE THE PARAMETERS      V1L5
         SR        R2,R2               ZERO R2                     V1L5
         IC        R2,XMODEKP          GET THE KP INDICATOR        V1L5
         EX        R0,STABCHAR(R2)     MOVE IN THE CORRECT CHARS   V1L5
         LM        R0,R15,XPRINTS      RESTORE THE REGISTERS       V1L5
         BR        R14                 RETURN                      V1L5
SNEXT5   DS        0H                                              V1L5
         AIF       ('&ISNTRAC' EQ 'OMIT').SNOISN1                  V1L2
         CLC       XCARD+L'XCONTROL(3),=C'ISN'  AN ISN CARD ?      V1L2
         BNE       SAROUN10            NOPE                        V1L2
         CLI       XCARD+L'XCONTROL+5,C'F' IS IT ISNOFF ?          V1L2
         LR        R7,R14              SAVE FOR RETURN             V1L2
         BE        SISNOFFT            BRANCH IF SO                V1L2
         BAL       R1,SEGCHK           GENERATE ENTRY CODING       V1L5
         OUTPUT    4,SISNONC                                       V1L3
         BR        R7                  RETURN                      V1L2
SISNOFFT DS        0H                                              V1L5
         BAL       R1,SEGCHK           GENERATE ENTRY CODING       V1L5
         OUTPUT    4,SISNOFFC          OUTPUT OBJECT CODE          V1L5
         BR        R7                  RETURN                      V1L2
SISNONC  MVI       XISNPATC+1,NOP      THIS IS THE O B J E C T     V1L2
SISNOFFC MVI       XISNPATC+1,BRA            C O D E               V1L2
SAROUN10 EQU       *                                               V1L2
.SNOISN1 ANOP                                                      V1L2
         AIF       ('&OMR'  EQ 'OMIT').SNOOMR                      V1L2
         CLC       XCARD+L'XCONTROL(3),=C'OMR'                     V1L2
         BNE       SNOOMR              NOT AN OMR CONTROL          V1L2
         OI        KOMPSW,XOMRSW                                   V1L5
SNOOMR   CLC       XCARD+L'XCONTROL(5),=C'NOOMR' A NO OMR CARD ?   V1L2
         BNE       SAROUNDA            BRANCH IF NOT               V1L2
         NI        KOMPSW,X'FF'-XOMRSW                             V1L5
SAROUNDA EQU       *                                               V1L2
.SNOOMR  ANOP                                                      V1L2
*./      DELETE    SEQ1=02019000,SEQ2=02080000                     V1L3
         B         SPRINT$             OF TO PRINT                 V1L3
.SCNTOKR ANOP                                                      V1L3
         AIF       ('&ISNTRAC' EQ 'OMIT').SSEGCHK                  V1L5
SEGCHK   DS        0H                                              V1L5
         BAL       R14,SPRINT$         PRINT CONTROL CARD          V1L5
         IF        (CSRSWTCH,RTN),R1   RETURN IF IN PROG SEGMENT   V1L5
         $ERROR    (WARN,CC,B)         $ISNON MUST BE IN SEGMENT   V1L5
         BR        R1                  RETURN                      V1L5
.SSEGCHK ANOP                                                      V1L5
         EJECT                                                     V1L3
SERRCC3  SERRON    SCC3
         B         SNEWSTAT            OFF TO INITIALIZE THE STATEMENT
         SPACE     2
SMCONTCD LH        R0,SCC              CARD COUNT
         SR        R7,R7                                           V1L3
         S         R0,KF1              REDUCE BY ONE
         BNM       SCONT1               TOO MANY ALREADY SO SOON
         SERRON    SCC1                SO ISSUE A WARNING
         SR        R0,R0               SO SIGN WILL BE PLUS
         SPACE     2
SCONT1   STH       R0,SCC
         C         R15,STACKEND        IS THE STACK FULL
         BNL       SBOMBED1            YES SO QUIT THE STATEMENT
         SPACE     2
SCONT2   DS        0H                                              V1L5
         IF        (SSW,NZ,SLCTRL),SCCA  WARN IF CONTROL CARD      V1L5
         CLC       SCHAR(5),KBL6       IS THERE A STMT NO?         V1L4
         LA        R1,SCARD+5          ADDR OF STATEMENT - 1
         BE        SMCDINIT            NOPE SO GO PROCESS REST OF STMT
         SERRON    SCC0                OH OH SHOULDN'T BE HERE
         B         SMCDINIT            SO FORGET ABOUT IT
SCCA     EQU       *                                               V1L4
         BAL       R14,SPRINT          PRINT OFFENDING CARD        V1L4
         $ERROR    (WARN,CC,A),SMREAD  NO CONTINUATION OF CTRL STMTV1L5
         SPACE     2
         EJECT
***********************************************************************
*        WE HAVE A COMPLETE STATEMENT IN THE STACK.
***********************************************************************
SXNEXT   IF        (SIHATULS,OFF),SXNEXT01                         V1L3
         MVI       SIHATULS,OFF                                    V1L3
         B         SXNEXT02                                        V1L3
SXNEXT01 BAL       R14,STIDY                                       V1L3
SXNEXT02 EQU       *                                               V1L3
*        NOW START PROCESSING THE NEXT STATEMENT
         LA        R1,SCARD            ADDR OF CARD IMAGE
SMSTACK  MVI       CURSTNO,ALLON       ASSUME NO STMT NO. PRESENT
         NI        SSW,X'FF'-SLCTRL    NOT PROCESSING CONTROL CARD V1L5
         CLC       SCHAR(5),KBL6       WELL IS THERE A STMT NO.
         BNE       STLOOP4             YES
STLOOP0  LA        R1,SCARD+5
         B         SNEWSTAT
STLOOP4  LA        R2,5                SET UP COUNT
STLOOP3  SR        R8,R8
         BAL       R14,STLOOP2         GO AROUND FIRST TIME
STLOOP1  LA        R1,1(,R1)           BUMP CHAR COUNT
STLOOP2  IF       (SCHAR,NE,BLANK),STNEXT     IS IT BLANK
         BCTR      R2,R14              YES SO GET NEXT CHAR
         B         STDONE              ALL DONE COLLECTING
STNEXT   IF       (SCHAR,ON,X'F0'),STPOK   DOES IT HAVE A ZONE
         AIF       ('&CNTLIST' EQ 'OMIT').STP0                     V1L5
         IF        (SSW,OFF,SPCARD),STCPK BR IF NOT $SPACE CARD    V1L5
         LA        R8,1                DEFAULT TO $SPACE           V1L5
         BR        R3                  NO ERROR - JUST RETURN      V1L5
STCPK    DS        0H                                              V1L5
.STP0    ANOP                                                      V1L5
         IF        (SCHAR,NE,C':'),STP0      PACKED FORMAT?
         BCTR      R1,R0
         B         STDONE
STP0     DS        0H                                              V1L4
         IF        (SCHAR,NE,X'FF'),STP1                           V1L5
         AIF       ('&CNTLIST' EQ 'OMIT').STPC1                    V1L5
         IF        (SSW,ON,SPCARD),STDONE  BR IF $SPACE CARD       V1L5
.STPC1   ANOP                                                      V1L5
         IF        (SPCKSWT,ON),STPACK BR IF PACKED STMT           V1L5
STP1     DS        0H                                              V1L5
         SERRON    SCC9                NO -> INV CHAR MSG          V1L4
         IF        (SPCKSWT,OFF),STLOOP0  NOT A PACKED CARD
         B         SNEWSTAT            AND PROCESS REST OF STATEMENT
STPACK   DS        0H                                              V1L4
         BCTR      R1,R0               BACK UP 1                   V1L4
         $ERROR    (NOAC,ST,B)         PACKED STMT MUST HAVE COLON V1L5
         B         SNEWSTAT            NEXT CARD                   V1L4
STPOK    IF        (SCHAR,GT,C'9'),STP0      IS IT A FUNNY CHAR
         IC        R7,SCHAR            NO SO GET IT
         N         R7,KF15             REMOVE ZONE
         SLA       R8,4                SHIFT WHAT YOU HAVE
         AR        R8,R7               ADD WHAT YOU JUST GOT
         BCTR      R2,R14              AND GET NEXT CHAR
STDONE   SLA       R8,4                ALL DONE COLLECTING
         O         R8,KF12             INSERT SIGN
         ST        R8,STLIST+4         SAVE STMT NO. AWAY
         CVB       R8,STLIST           CONVERT TO BINARY
         AIF       ('&CNTLIST' EQ 'OMIT').STPC2                    V1L5
         IF        (SSW,ON,SPCARD),R3  RETURN IF $SPACE CARD       V1L5
.STPC2   ANOP                                                      V1L5
         ST        R8,CURSTNO          SAVE # FOR PROCESSOR        V1L5
         LA        R1,1(,R1)           BUMP PAST COLUMN SIX
         EJECT
**********************************************************************
*        THIS CODING INITIALIZES SCAN FOR A NEW STATEMENTF
**********************************************************************
SNEWSTAT SR        R7,R7               FOR STORING PRESENT CHAR
         SR        R2,R2               FOR TRT LOOP
         ST        R2,CSTNOLK          SYM TAB PTR TO STMT NO.
         ST        R2,SNLIST           ZEROCONSTANT COLLECTOR WORD
         ST        R2,SWITCHES
         ST        R2,SWITCHES+4
         MVI       SDASWTCH,X'00'      INITIALIZE D. A. SWITCH
         MVC       SCC+1(1),CNOCCRDS   SET CONT CARD COUNT         V1L4
         MVI       CDOEND,OFF                                      V1L2
         LA        R8,4                CHAR COUNT
         STH       R2,SBCNT            ZERO BRACKET COUNT
         ST        R2,SRT1             FIRST LEVEL 0 ')' PTR
         ST        R2,SRT2             SECOND LEVEL 0 ')' PTR
         ST        R2,SRT3             LAST   LEVEL 0 ')' PTR
         ST        R2,CSAVENOX         STATNO OBJCODE ADDR         V1L2
         LH        R0,=H'-8'
         STH       R0,SAVESRT          STORE FOR LEVEL 0 ')' PTR
         MVI       SFNDSWT,NIL
         L         R15,SSTACK          ADDR OF THE STACK
         LH        R0,XISN             BUMP ISN
         AH        R0,KF1+2
         STH       R0,XISN
         MVI       SOUTCODE+1,NOP      FOR BRANCH AROUND IN HOLL'S
         MVI       SOPTR,TERM          INITIALIZE STACK TERMINATOR
         MVI       SWITCH,SCINIT       SCAN SWITCH
         MVI       CISNCDSW,OFF
         EJECT
*********************************************************************
*   REG 1       USED FOR TRT INST
*   REG 2 CONTAINS ROUTINE ADDRESS
*   REG 7       USED TO STORE THE CHARACTER
*   REG 8   USED FOR CHARACTER COUNT
*   REG 15  ADDR      OF STACK
*********************************************************************
SMCDINIT LA        R9,SOPERTOR         ADDR OF OPERATOR ROUTINE
SRET1    LA        R1,1(,R1)           BUMP TO GET NEXT CHAR
         AIF       ('&MODEL' EQ '75').SRET1
SRET11   TRT      SCHAR(73),SJUMPC
         IC        R7,SCHAR            GET CHARACTER
.SRET1   ANOP
         AIF       ('&MODEL' NE '75').SRET2
SRET11   IC        R7,SCHAR            GET THE CHARACTER
         IC        R2,SJUMPC(R7)       GET THE CODE
.SRET2   ANOP
         LH        R14,SJUMPR(R2)      ADDR OF ROUTINE
         B         SPAN(R14)           AND AWAY WE GO
         AIF       ('&MODEL' NE '75').SBLANKC
         SPACE 2
SBLANKC  LA        R1,1(,R1)           BUMP TO NEXT CHAR
         TRT      SCHAR(73),SJUMPC
         B        SRET11
.SBLANKC ANOP
         $FREE     R1                                              V1L5
         EJECT
***********************************************************************
*        FINISH LAST ENTRY IN THE STACK
*        FIX UP BRANCH AROUND ADDRESS OF HOLLERITH CONSTANTS
*        CHECK BRACKET COUNT FOR ZERO
***********************************************************************
STIDY    ST        R14,STID14          SAVE FOR RETURN
         SR        R7,R7
         IF        (SFNDSWT,NON,SCFORM),STIDY1   IS IT FORMAT STMT
         L         R2,SADFORM          ADDR OF FORMAT PROCESSOR
         ST        R2,SAVE123          SAVE IT FOR LATER
         B         SMSET3
STIDY1   SAWAYTO   STIDT,SFIXTAB       FIX UP LAST ENTRY IN STACK
         MVC       STAK(4),SLAST       INSERT END DELIMITER IN STACK
         IF        (SHLCONS,NE,ALLON),SAWAY1     ANY HOLL CONSTANTS
         IF        (CMOSWTCH,ON,ZSWON),SAWAY1    MEMORY FULL YET
         L         R4,CBAR11           SET UP BRANCH AROUND
         LR        R0,R5               DISPLACEMENT IN THE OBJECT
         SR        R0,R4               FOR HOLLERITH CONSTANTS
         STH       R0,ZR4+2(RO)        AND STORE IT IN THE OBJECT CODE
SAWAY1   EQU       *
         AIF       ('&SNAPS' EQ 'OMIT').SSN2
         BAL       R14,PRNTSTCK        FOR TEST PURPOSES
.SSN2    ANOP
         CH        R7,SBCNT            IS BRACKET COUNT ZERO
         BZ        SFIND               NO
         SERRON    SPC0                YES SO SET ERROR FLAG
         EJECT
**********************************************************************
*        CHECK FOR IF'S AND DO'S AND ASSIGNMENT STATEMENTS FIRST
*        NEXT CHECK ALL OTHER TYPES OF STATEMENTS
*        ADDR OF STATEMENT PROCESSOR WILL BE IN 'SAVE123'
*        ADDR OF PROCESSOR OF STMT AFTER LOG IF IN SAVE123+8