SPEX     TITLE     '### SPEX ###     MACRO DEFINITIONS'            V1L0
*        PRINT     OFF                                             V1L0
         MACRO                                                     V1L0
&NAME    SETLINK   &FROM,&TO,&LOC,&WREG,&GEN                       V1L0
.*        THIS MACRO SETS UP SYMBOL TABLE LINKS FOR VLIST          V1L0
.*       &FROM AND &TO ARE ADDRESSES IN REGISTERS.THEY REFER       V1L0
.*       TO THE TWO ENTRIES WHICH ARE TO BE LINKED                 V1L0
.*       &LOC IS THE LOCATION IN WHICH THE LINK IS STORED          V1L0
         GBLA      &SETLNK#                                        V1L0
         LCLC      &WORK                                           V1L0
&SETLNK# SETA      &SETLNK#+1                                      V1L0
&WORK    SETC      'R15'                                           V1L0
         AIF       ('&WREG' EQ '').A                               V1L0
&WORK    SETC      '&WREG'                                         V1L0
.A       ANOP                                                      V1L0
&NAME    LR        &WORK,&FROM                                     V1L0
         SR        &WORK,&TO                                       V1L0
         STH       &WORK,&LOC                                      V1L0
         MEND                                                      V1L0
         EJECT                                                     V1L0
         MACRO                                                     V1L0
&NAME    LINK      &FROM,&LINK                                     V1L0
.*       THIS MACRO LINKS FROM ONE SYMBOL TABLE ENTRY TO ANOTHER   V1L0
&NAME    SH        &FROM,&LINK                                     V1L0
         MEND                                                      V1L0
         EJECT                                                     V1L0
         MACRO                                                     V1L0
&NAME    LINK1     &FROM,&TO,&TEMP                                 V1L0
.*       THIS MACRO IS SIMILAR TO LINK2 EXCEPT THAT THE LINK       V1L0
.*       IS ALREADY IN &TO                                         V1L0
&NAME    LR        &TEMP,&FROM                                     V1L0
         SR        &TEMP,&TO                                       V1L0
         MEND                                                      V1L0
         EJECT                                                     V1L0
         MACRO                                                     V1L0
&NAME    LINK2     &FROM,&TO,&LOC                                  V1L0
.*       THIS MACRO IS SIMILAR TO LINK EXCEPT THAT                 V1L0
.*       &FROM IS NOT DESTROYED                                    V1L0
         GBLA      &LINK2#                                         V1L0
&LINK2#  SETA      &LINK2#+1                                       V1L0
&NAME    LR        &TO,&FROM                                       V1L0
         SH        &TO,&LOC                                        V1L0
         MEND                                                      V1L0
         EJECT                                                     V1L0
         MACRO                                                     V1L0
&NAME    SLINK     &ANY                                            V1L0
.*       THIS MACRO LINKS TO THE NEXT STACK ENTRY                  V1L0
         GBLA      &SLINK#                                         V1L0
&SLINK#  SETA      &SLINK#+1                                       V1L0
&NAME    AH        RS,SLINK                                        V1L0
         MEND                                                      V1L0
         EJECT                                                     V1L0
         MACRO                                                     V1L0
&NAME    MULTSS    &OP                                             V1L0
         LCLA      &A                                              V1L0
&A       SETA      24                                              V1L0
&NAME    DS        0H                                              V1L0
.A       ANOP                                                      V1L0
         M         R2,TSS+&A                                       V1L0
&A       SETA      &A-4                                            V1L0
         AIF       (NOT (&A EQ 0 AND '&OP' EQ 'OMITLAST')).B       V1L0
         MEXIT                                                     V1L0
.B       ANOP                                                      V1L0
         AIF       (&A GE 0).A                                     V1L0
         MEND                                                      V1L0
         EJECT                                                     V1L0
         MACRO                                                     V1L0
&NAME    MULTDIM   &OP                                             V1L0
         LCLA      &A                                              V1L0
&A       SETA      24                                              V1L0
&NAME    DS        0H                                              V1L0
.A       ANOP                                                      V1L0
         M         R2,DIM1+&A                                      V1L0
&A       SETA      &A-4                                            V1L0
         AIF       (NOT (&A EQ 0 AND '&OP' EQ 'OMITLAST')).B       V1L0
         MEXIT                                                     V1L0
.B       ANOP                                                      V1L0
         AIF       (&A GE 0).A                                     V1L0
         MEND                                                      V1L0
         EJECT                                                     V1L0
         MACRO                                                     V1L0
&NAME    JUMPTAB   &INC                                            V1L0
         LCLA      &A                                              V1L0
&A       SETA      (&INC)*6                                        V1L0
&NAME    DC        AL1(*-*)                                        V1L0
.A       ANOP                                                      V1L0
         DC        AL1(&A)                                         V1L0
&A       SETA      &A-&INC                                         V1L0
         AIF       (&A GE 0).A                                     V1L0
         MEND                                                      V1L0
         EJECT                                                     V1L0
         MACRO                                                     V1L0
&NAME    BUMP      &R,&LOC,&H                                      V1L0
         LCLC      &L                                              V1L0
         LCLC      &RR                                             V1L0
         AIF       ('&SYSLIST(2)' NE '').A                         V1L0
&RR      SETC      'R3'                                            V1L0
&L       SETC      '&SYSLIST(1)'                                   V1L0
         AGO       .B                                              V1L0
.A       ANOP                                                      V1L0
&RR      SETC      '&R'                                            V1L0
&L       SETC      '&LOC'                                          V1L0
.B       ANOP                                                      V1L0
&NAME    L&H       &RR,&L                                          V1L0
         LA        &RR,1(0,&RR)                                    V1L0
         ST&H      &RR,&L                                          V1L0
         MEND                                                      V1L0
         EJECT                                                     V1L0
         MACRO                                                     V1L0
&NAME    TVNAM     &A                                              V1L0
         GBLA      &TVNAM#                                         V1L0
&TVNAM#  SETA      &TVNAM#+1                                       V1L0
         AIF       ('&A'(1,1) NE 'R').A                            V1L0
&NAME    LR        R7,&A                                           V1L0
         AGO       .B                                              V1L0
.A       ANOP                                                      V1L0
&NAME    LA        R7,&A                                           V1L0
.B       ANOP                                                      V1L0
         THEN      (DO,TVNAM)          CALL NAM TEST ROUTINE       V1L0
         MEND                                                      V1L0
         EJECT                                                     V1L0
         MACRO                                                     V1L0
&NAME    TSS
.*     SET SWITCH TO INDICATE WHETHER SUBSCIPT OR DIMENSION PRESENTV1L0
&NAME    IC        R3,SOPTR                                        V1L5
         STC       R3,TSSVABL                                      V1L5
         MEND                                                      V1L0
         EJECT                                                     V1L0
         PRINT     OFF
         TITLE     '### SPEX ###     MISCELLANEOUS DEFINITIONS'    V1L0
         COPY      OPTIONS                                         V1L0
         $PUNCH    SPEX                                            DVS2
         EJECT                                                     V1L0
         COPY      CDEFN                                           V1L0
         PRINT     ON                                              V1L0
TSTAK    DSECT                                                     V1L0
TLINK    DS        H                                               V1L0
TOPTR    DS        X                                               V1L0
TCODE    DS        X                                               V1L0
TOPND    DS        F                                               V1L0
TIMPL    DSECT                                                     V1L0
TIMPL1   DS        CL42                                            V1L0
TIMPL2   DS        CL42                                            V1L0
         PRINT     OFF                                             V1L0
         EJECT                                                     V1L0
SPEX     CSECT                                                     V1L0
STARTA   DSECT                                                     V1L0
         COPY      STARTA                                          V1L0
COMMR    DSECT                                                     V1L0
         COPY      COMMR                                           V1L0
         ERRTABLE                                                  V1L0
         PRINT     ON                                              V1L0
         EJECT                                                     V1L0
         EXTRN     IDATA                                           V1L0
&DECK    SETC      'SPEX'                                          V1L0
         COPY      EXTRN                                           V1L0
         ENTRY     TEQUIV                                          V1L0
         ENTRY     TEQUIV1                                         V1L0
         ENTRY     TCOMM                                           V1L0
         ENTRY     TIMPCIT                                         V1L0
         ENTRY     TEXTE                                           V1L0
         ENTRY     TDIME                                           V1L0
         ENTRY     TLOGCL                                          V1L0
         ENTRY     TINTGR                                          V1L0
         ENTRY     TREAL                                           V1L0
         ENTRY     TCHARAC                                         V1L0
         ENTRY     TCMPLX                                          V1L0
         ENTRY     TDBLPREC                                        V1L0
         PRINT     ON                                              V1L0
         PRINT     ON,&LIST                                        V1L0
         NOMACROS                                                  V1L0
         TITLE     '### SPEX ###     TYPE AND DIMENSION'           V1L0
*******************************************************************V1L0
*                                                                 *V1L0
SPEX     CSECT                                                     V1L0
*                                                                 *V1L0
*******************************************************************V1L0
         SPACE     2                                               V1L0
*******************************************************************V1L0
*******************************************************************V1L0
*******************************************************************V1L0
*******************************************************************V1L0
*******************************************************************V1L0
*******************************************************************V1L0
*******************************************************************V1L0
*********                                                 *********V1L0
*********                R E A L                          *********V1L0
*********                                                 *********V1L0
*********                I N T E G E R                    *********V1L0
*********                                                 *********V1L0
*********                L O G I C A L                    *********V1L0
*********                                                 *********V1L0
*********                C O M P L E X                    *********V1L0
*********                                                 *********V1L0
*********                C H A R A C T E R                *********V1L0
*********                                                 *********V1L0
*********                D I M E N S I O N                *********V1L0
*********                                                 *********V1L0
*********                D O U B L E   P R E C I S I O N  *********V1L0
*********                                                 *********V1L0
*******************************************************************V1L0
*******************************************************************V1L0
*******************************************************************V1L0
*******************************************************************V1L0
*******************************************************************V1L0
*******************************************************************V1L0
*******************************************************************V1L0
CIMLT    EQU       CIMPL1                                          V1L0
TM1SS    EQU       B'01100000'                                     V1L0
TS       EQU       R1                                              V1L0
COM      EQU       COMMA                                           V1L0
COMB     EQU       B'00110010'                                     V1L0
REAL     EQU       B'00000100'                                     V1L0
INT      EQU       B'00000010'                                     V1L0
DIM1     EQU       DLEN+4                                          V1L0
USE      EQU       B'01000000'                                     V1L0
FBIT     EQU       B'01000000'                                     V1L0
TEOL     EQU       X'01'                                           V1L0
         USING     STAK,RS                                         V1L0
         USING     VLIST,TS                                        V1L0
         EJECT                                                     V1L0
*******************************************************************V1L0
*********                DIMENSION ENTRY                  *********V1L0
*******************************************************************V1L0
TDIME    CENT      TSAVER                                          V1L0
         THEN      (DO,TBEFOR)         CHECK STATEMENT SEQUENCE    V1L0
         MVI       TSTAT,C'D'          SET STATEMENT TYPE          V1L0
         B         TESTNAME            GO TO CHECK FOR NAME        V1L0
         EJECT                                                     V1L0
*******************************************************************V1L0
*********                DOUBLE PRECISION ENTRY           *********V1L0
*******************************************************************V1L0
TDBLPREC CENT      TSAVER                                          V1L0
         THEN      (DO,TBEFOR)         CHECK STATEMENT SEQUENCE    V1L0
         MVI       TSTAT,C'T'          SET STATEMENT TYPE          V1L0
         MVI       TML1,REAL8          SET DEFAULT TYPE FOR VARS   V1L0
*        THE VALUE IN THE NEXT INST IS A MULTIPLE OF X'08'         V1L0
         LA        R2,15*256+8         LOAD STANDARD LENGTH        V1L0
         LA        R3,8                LOAD OPTIONAL LENGTH        V1L0
         STM       R2,R3,TOPTLEN       SAVE LENGTHS                V1L0
         ST        R2,TYPIMPLN         DEFAULT LENGTH              V1L0
         B         TESTNAME            GO TO CHECK FOR NAME        V1L0
         EJECT                                                     V1L0
*******************************************************************V1L0
*********                LOGICAL ENTRY                    *********V1L0
*******************************************************************V1L0
TLOGCL   CENT      TSAVER                                          V1L0
         MVI       TML1,LOG            SET DEFAULT TYPE FOR VARS   V1L0
         LA        R2,4                LOAD STANDARD LENGTH        V1L0
         LA        R3,1                LOAD OPTIONAL LENGTH        V1L0
         B         TESTAR              DO SYNTAX CHECKING          V1L0
         EJECT                                                     V1L0
*******************************************************************V1L0
*********                INTEGER ENTRY                    *********V1L0
*******************************************************************V1L0
TINTGR   CENT      TSAVER                                          V1L0
         MVI       TML1,INT            SET DEFAULT YPE FOR VARS    V1L0
         LA        R2,4                LOAD STANDARD LENGTH        V1L0
         LA        R3,2                LOAD OPTIONAL LENGTH        V1L0
         B         TESTAR              DO SYNATX CHECKING          V1L0
         EJECT                                                     V1L0
*******************************************************************V1L0
*********                REAL ENTRY                       *********V1L0
*******************************************************************V1L0
TREAL    CENT      TSAVER                                          V1L0
         MVI       TML1,REAL           SET DEFAULT TYPE FOR VARS   V1L0
         LA        R2,4                LOAD STANDARD LENGTH        V1L0
         LA        R3,8                LOAD OPTIONAL LENGTH        V1L0
         B         TESTAR              DO SYNTAX CHECKING          V1L0
         EJECT                                                     V1L0
*******************************************************************V1L0
*********                CHARACTER ENTRY                  *********V1L0
*******************************************************************V1L0
TCHARAC  CENT      TSAVER                                          V1L0
         MVI       TCHAR,C'Y'          CHARACTER STATEMENT         V1L0
         MVI       TML1,CHAR           SET DEFAULT TYPE FOR VARS   V1L0
         LA        R2,1                LOAD STANDARD LENGTH        V1L0
         LA        R3,255              LOAD MAXIMUM LENGTH         V1L0
         B         TESTAR              DO SYNTAX CHECKING          V1L0
         EJECT                                                     V1L0
*******************************************************************V1L0
*********                COMPLEX ENTRY                    *********V1L0
*******************************************************************V1L0
TCMPLX   CENT      TSAVER                                          V1L0
         MVI       TML1,COMP           SET DEFAULT TYPE FOR VARS   V1L0
         LA        R2,8                LOAD STANDARD LENGTH        V1L0
         LA        R3,16               LOAD OPTIONAL LENGTH        V1L0
         EJECT                                                     V1L0
*******************************************************************V1L0
*********                STATEMENT OPTIONAL LENGTH        *********V1L0
*******************************************************************V1L0
*        TYPIMPLN IS THE LOCATION USED TO STORE THE DEFAULT        V1L0
*        LENGTH OF A VARIABLE IF V*N IS NOT SPECIFIED              V1L0
TESTAR   BALR      R11,0                                           V1L0
         USING     *,R11                                           V1L0
         THEN      (DO,TBEFOR)         CHECK STATEMENT SEQUENCE    V1L0
         STM       R2,R3,TOPTLEN       SAVE LENGTHS                V1L0
         ST        R2,TYPIMPLN         SAVE DEFAULT LENGTH         V1L5
         MVI       TSTAT,C'T'          SET STATEMENT TYPE TO 'TYPE'V1L0
         IF        (SCODE,NE,PHI),TESTNAME  CONCATENATION ?        V1L0
         SLINK                              STEP STACK             V1L0
         IF        (SOPTR,EQ,STAR),TIZSTAR  CHECK FOR '*'          V1L0
         THEN      (DO,TSX2DL),TESTNAME     OUTPUT ERROR MESSAGE   V1L0
TIZSTAR  IF        (SCODE,EQ,CCONS+1),TISCON   CHECK FOR 1 WD CONSTV1L0
         THEN      (DO,TSX4)                                       V1L1
         L         R11,=A(TYPUSING)                                V1L1
         B         TYPEND-TYPUSING(R11)                            V1L1
TISCON   L         R4,SOPND            LOAD THE LENGTH FROM STACK  V1L5
         N         R4,TM0531           GET RID OF DIGIT COUNT      V1L0
         CR        R2,R4               IS LENGTH STANDARD ?        V1L0
         BE        TXLINK              YES                         V1L0
         CR        R3,R4               IS LENGTH OPTIONAL ?        V1L0
         BE        TSETL1              YES                         V1L0
         IF        (TCHAR,NE,C'Y'),TTIM1    CHARACTER STATEMENT ?  V1L0
         CR        R3,R4               IS LENGTH <=255 ?           V1L0
         BNL       TSETL1              YES.                        V1L0
TTIM1    THEN      (DO,TERRIM1),TXLINK OUTPUT ERROR MESSAGE        V1L0
TSETL1   OI        TML1,X'01'          SET OPTIONAL LENGTH BIT     V1L0
         ST        R4,TYPIMPLN         DEFAULT LENGTH FOR VARS     V1L5
TXLINK   SLINK                         STEP STACK                  V1L0
         IF        (SOPTR,NE,PHI),THEN,(DO,TSX1)     NULL OPERATOR ?
         EJECT                                                     V1L0
*******************************************************************V1L0
*********                LOOK FOR SYMBOL                  *********V1L0
*******************************************************************V1L0
TESTNAME BALR      R11,0                                           V1L0
         USING     *,R11                                           V1L0
TYPUSING IC        R3,TML1             LENGTH FOR THIS VARIABLE    V1L5
         STC       R3,TML2             LENGTH FOR THIS VARIABLE    V1L5
         TVNAM     TYPEND              CHECK FOR VALID NAME        V1L0
TSTONAM  ST        RS,TSNAME           SAVE P(NAME IN STACK)       V1L5
         SLINK                         LINK TO STUFF AFTER SYMBOL  V1L0
         IF        (TSTAT,EQ,C'T'),TYPEE    TYPE STATEMENT ?       V1L0
         EJECT                                                     V1L0
*******************************************************************V1L0
*********                DIMENSION STATEMENT SYNTAX       *********V1L0
*******************************************************************V1L0
         IF        (SOPTR,EQ,LBRK),TYPLB    CHECK FOR '('          V1L0
         IF        (SOPTR,NE,COM),THEN,(DO,TSX1),TYPEND            V1L0
         L         R7,TSNAME           FOR ERROR PROCESSOR         V1L5
TERRDM0  $ERROR    (NOAC,DM,0,SYMR7),R11    OUTPUT ERROR MESSAGE   V1L5
         EJECT                                                     V1L0
*******************************************************************V1L0
*********                TYPE STATEMENT SYNTAX            *********V1L0
*******************************************************************V1L0
TYPEE    L         R3,TYPIMPLN         SET UP CURRENT LENGTH       V1L5
         ST        R3,TYPLEN                                       V1L5
TYPTEST2 IF        (SOPTR,NE,STAR),TYPLB         CHECK FOR '*'     V1L0
TISTAR   IF        (SCODE,EQ,CCONS+1),TISCON2    IS CONST 1 WD LONGV1L0
         THEN      (DO,TSX4),TYPEND    NO,OUTPUT ERROR MESSAGE     V1L0
TISCON2  L         R4,SOPND            PICK UP LENGTH FROM STACK   V1L5
         N         R4,TM0531           GET RID OF DIGIT COUNT      V1L0
         C         R4,TOPTLEN          IS LENGTH STANDARD ?        V1L0
         BNE       TYP0002             NO                          V1L0
         NI        TML2,X'FE'          SET L=0                     V1L0
         B         TYLINK                                          V1L0
TYP0002  C         R4,TOPTLEN+4        IS LENGTH OPTIONAL ?        V1L0
         BE        TIZOPLEN            YES                         V1L0
         IF        (TCHAR,NE,C'Y'),TTIM1TOO      CHARACTER STAT ?  V1L0
         C         R4,TOPTLEN+4        IS IT  <=255 ?              V1L0
         BNH       TIZOPLEN            YES                         V1L0
TTIM1TOO THEN      (DO,TERRIM1),TYLINK2     OUTPUT ERROR MESSAGE   V1L0
TIZOPLEN OI        TML2,X'01'          SET L=1                     V1L0
TYLINK   ST        R4,TYPLEN           LENGTH FOR THIS VARIABLE    V1L5
TYLINK2  SLINK                         STEP STACK                  V1L0
TYPLB    TSS                           SAVE OPERATOR               V1L0
         EJECT                                                     V1L0
*******************************************************************V1L0
*********                DO SYMBOL LOOKUP                 *********V1L0
*******************************************************************V1L0
TYPLOOK  ST        RS,TSOPTR           SAVE P(STUFF AFTER NAME)    V1L5
         L         RS,TSNAME           LOAD P(NAME IN STACK)       V1L5
         LOOKUP    VARIABLE,,TYPOLD                                V1L0
         EJECT                                                     V1L0
*******************************************************************V1L0
*********                NEW SYMBOLS HERE                 *********V1L0
*******************************************************************V1L0
         LR        TS,R15                                          V1L0
         IF        (TSTAT,EQ,C'D'),TESTSUB       DIMENSION STAT ?  V1L0
         THEN      (DO,TYPGEN)                   FIX UP VB1        V1L0
TESTSUB  IF        (TSSVABL,NE,LBRK),TSIMTYP     DIMENSIONS ?      V1L0
         THEN      (DO,TSUSDET),(DO,TGENDIME),TDIMTYP              V1L0
         EJECT                                                     V1L0
*******************************************************************V1L0
*********                OLD SYMBOLS HERE                 *********V1L0
*******************************************************************V1L0
TYPOLD   LR        TS,R15                                          V1L0
         SNAPS     SYMBOL1,VLIST,16                                V1L0
TISVAR   IF        (TSTAT,EQ,C'T'),TYPE3    TYPE STATEMENT ?       V1L0
         LA        R8,TESTPSD2         BRANCH ADDRESS              V1L0
TDIMCK   THEN      (DO,TSUSDET)        COMPILE DIMENSIONS          V1L0
         THEN      (DO,TYPTEST)        CHECK VB1,VB2,VB3           V1L0
         IF        (VB3,ON,FBIT),THEN,(DO,TERRVA8),TDIMTYP     FUNC?
         IF        (VB1,SVAR),R8       SIMPLE VARIABLE ?           V1L0
         IF        (VB3,ON),R8         PSEUDO EQUIVALENCE ?        V1L0
         THEN      (DO,TERRDM1),TDIMTYP     OUTPUT ERROR MESSAGE   V1L0
TYPE3    LA        R8,TIZITYP          BRANCH ADDRESS              V1L0
         IF        (TSSVABL,EQ,LBRK),TDIMCK DIMENSIONS ?           V1L0
TNOSS    L         RS,TSOPTR           RELOAD STACK PTR            V1L5
         THEN      (DO,TYPTEST)        CHECK VB1,VB2,VB3           V1L0
TIZITYP  IF        (VB2,OFF,TYPE),TIZNTYP   IS HE RE-TYPING        V1L0
TERRTY0  $ERROR    (NOAC,TY,0,NAMTS),TANYTYP     OUTPUT ERROR MSG  V1L5
TIZNTYP  IF        (VB2,OFF,B2EQV),TYPGENER      IS IT EQUIVALENCEDV1L0
         IF        (VB2,ON,PARM),TYPGENER        CALL BY NAME      V1L0
         IF        (VB3,OFF,FBIT),TSAMLEN        FUNCTION NAME ?   V1L0
         IF        (TSSVABL,EQ,LBRK),THEN,(DO,TERRVAA),TDIMTYP BAD V1L0
         B         TYPGENER            NOT DIMENSIONING FUNC NAME  V1L0
TSAMLEN  CLC       VLEN,TYPLEN+3       IS HE CHANGING LENGTH ?     V1L0
         BE        TYPGENER            NO.GOOD FOR HIM(HER,IT)     V1L0
TERRTY1  $ERROR    (NOAC,TY,1,NAMTS),TANYTYP     IMPLEMENT. RESTR. V1L5
TYPGENER IC        R3,VLEN             IF 'TYPE' AFTER 'DIMENSION' V1L5
         STC       R3,TOLDLEN+3                                    V1L5
         THEN      (DO,TYPGEN)         FIX UP VB1                  V1L0
         IFALL     (VB1,DVAR),(VB2,OFF,B2EQV),THEN,(DO,TCHIFT)     V1L0
TANYTYP  EQU       *                                               V1L0
TESTPSD  IF        (TSSVABL,NE,LBRK),TSIMTYP     DIMENSIONS ?      V1L0
TESTPSD2 IF        (VB3,ON),THEN,(DO,TEQVFIX),TDIMTYP FIX ELIST,DLIST
         THEN      (DO,TGENDIME)       SET UP DLIST                V1L0