PARSE    TITLE 'P D S  --  PDS PARSE PROCESSING ROUTINE      09/28/88'
         SPACE 2
         MACRO
&L       $T    &Z,&PF,&RTN,&O,&PCL,&P,&PP,&CR,&HD
         LCLA  &NUM
         LCLC  &NAME,&P2
&NAME    SETC  '&Z'.' '
&L       DC    0F'0',CL8'&NAME'                *** SUBCOMMAND NAME
&P2      SETC  '&RTN'
         AIF   ('&P2'(1,1) EQ '0').RTT00
&NUM     SETA  7
.DROPRT  ANOP
         AIF   ('&P2'(1,1) NE '+').RTTP2
&P2      SETC  '&P2'(2,&NUM)
&NUM     SETA  &NUM-1
         AGO   .DROPRT
.RTTP2   DC    X'&PF',VL3(&P2)                 *** FLAGS, RTN ADDRESS
         AGO   .RTTPP
.RTT00   DC    X'&PF',AL3(&P2)                 *** FLAGS, RTN ADDRESS
.RTTPP   ANOP
&P2      SETC  '&PCL'
         AIF   ('&P2'(1,1) EQ '0').PCT00
&NUM     SETA  7
.DROPPC  ANOP
         AIF   ('&P2'(1,1) NE '+').PCTP2
&P2      SETC  '&P2'(2,&NUM)
&NUM     SETA  &NUM-1
         AGO   .DROPPC
.PCTP2   DC    AL1(&O),AL3(&P2)                *** FLAGS, PCL ADDRESS
         AGO   .PCTPP
.PCT00   DC    AL1(&O),AL3(&P2)                *** FLAGS, PCL ADDRESS
.PCTPP   ANOP
&P2      SETC  '&PP'
         AIF   ('&P2'(1,1) EQ '0').PPT00
&NUM     SETA  7
.DROPPP  ANOP
         AIF   ('&P2'(1,1) NE '+').PPTP2
&P2      SETC  '&P2'(2,&NUM)
&NUM     SETA  &NUM-1
         AGO   .DROPPP
.PPTP2   DC    AL1(&P),AL3(&P2)                *** FLAGS, PP ADDRESS
         AGO   .PPTPP
.PPT00   DC    AL1(&P),AL3(&P2)                *** FLAGS, PP ADDRESS
.PPTPP   ANOP
         DC    CL8'&CR'                        *** ATTACHED TSO COMMAND
         DC    AL2(&HD-ONIX),XL2'FFFF'         *** HELP, AVAILABLE
.EXIT    MEND
         SPACE 2
         MACRO
&L       COND  &OPRAND,&OPRAT
         AIF   ('&L' EQ '').EXIT
         &OPRAND &OPRAT
.EXIT    MEND
         SPACE 2
         MACRO
&L       CONDIKJ &OPRAT
         AIF   ('&L' EQ '').EXIT
         IKJNAME &OPRAT
.EXIT    MEND
         SPACE 2
         PRINT OFF
         COPY  #PDSGEN
         SPACE 2
&CBRO    SETC  'BROWSE'   ***  SPF BROWSE SERVICE NAME
&CEDI    SETC  'EDIT'     ***  SPF EDIT SERVICE NAME
         PRINT ON
         SPACE 1
         AIF   ('&CISP' EQ '').NOSPF
         AIF   ('&CISP' EQ 'SPF').SMNOTE
         AIF   ('&CISP' EQ 'ISPF').SMNOTE
         AIF   ('&CISP' EQ 'ISPFV2').SMNOTE
         SPACE 3
         MNOTE 12,'*** CISP -- SPF CONTROL &CISP IS INVALID ***'
         SPACE 2
         AGO   .NOGEN
.NOSPF   ANOP
&CISP    SETC  'NO SPF'
&NBRO    SETC  ''          *** NULLIFY THE SPF SUBCOMMANDS -- NO SPF
&NEDI    SETC  ''          *** NULLIFY THE SPF SUBCOMMANDS -- NO SPF
&NISP    SETC  ''          *** NULLIFY THE SPF SUBCOMMANDS -- NO SPF
&NSPF    SETC  ''          *** NULLIFY THE SPF SUBCOMMANDS -- NO SPF
.SMNOTE  ANOP
         PRINT NOGEN
         TITLE 'P D S  --  PDS PARSE PROCESSING ROUTINE      09/28/88'
*
*        PARSE INTERFACE SUBROUTINE
*
         SPACE 1
PARSE    CSECT
R0       EQU   0
R1       EQU   1
R2       EQU   2
R3       EQU   3
R4       EQU   4
R5       EQU   5
R6       EQU   6
R7       EQU   7
R8       EQU   8
R9       EQU   9
R10      EQU   10
R11      EQU   11
R12      EQU   12
R13      EQU   13
R14      EQU   14
R15      EQU   15
FF       EQU   255
         USING *,R8
         USING WORKAREA,R7
         ENTRY $TBL,$ATT,$PRI,$CHA
         ST    R8,R8PARSE
         ST    R14,R14PARSE
         LR    R8,R15
         L     R1,=A($CHA)              START OF CHANGE ENTRY
         CLC   ##ADRPCL+1(3),13(R1)     PARSE FOR NEW DATA SET?
         BNE   PARSE2                   NO, BRANCH
         STAX  ,                        YES, CANCEL ANY PREVIOUS STAX
PARSE2   BAS   R2,FREEPDL               FREE ANY PREVIOUS PARSE STORAGE
         SPACE 1
         LA    R15,PARMPARS             AREA FOR PARSE PARAMETERS
         USING PPL,R15                  BASE FOR PARSE PARAMETER LIST
         SPACE 1
         L     R1,ADDRUPT
         L     R2,ADDRECT
         LA    R3,ATTNECB
         L     R4,##ADRPCL
         LA    R5,ADDRANSR
         L     R6,ADDRCBUF
***      LA    R7,MAINSAVE
         SPACE 1
         TM    ##ADRPC#,@S+@G       NON-PARTITIONED AND MEMBER NEEDED?
         BNO   PARSE4               NO, BRANCH
         SPACE 1
*    THE FOLLOWING 6 LINES OF CODE ADD A MEMBER PARAMETER WHEN
*      REQUIRED FOR NON-PARTITIONED DATA SET SUBCOMMAND PARSE.
         LH    R14,2(,R6)           OFFSET FOR OPERANDS
         A     R14,=F'-2'           LESS TWO
         STH   R14,2(,R6)           UPDATE THE OFFSET
         LA    R14,0(R6,R14)        POINT TO THE NEW OPERAND
         MVI   4(R14),C'Z'          DUMMY MEMBER NAME
         MVI   5(R14),X'40'         SEPARATOR CHARACTER
         SPACE 1
PARSE4   STM   R1,R7,PPLUPT         INITIALIZE PPLUPT, PPLECT, PPLECB
*                                   PPLPCL, PPLANS, PPLCBUF AND PPLUWA
         DROP  R15
         LR    R1,R15
         MVI   ATTNECB,1            FLAG -- CAN BE ATTENTIONED
         SPACE 2
         L     R15,ADDRPARS         INVOKE
         BASR  R14,R15                    PARSE
         STC   R15,R14PARSE
         MVI   ATTNECB,0            CLEAR ATTENTION ECB
         SPACE 3
         L     R6,ADDRANSR             PARSE RESULT BASE REGISTER
         LTR   R15,R15                 GOOD PARSE?
         BNZ   PARSPOST                NO, BRANCH
         SPACE 1
         ICM   R4,B'0111',##ADRPAR+1   ANY PROCESSING ROUTINE?
         BNZR  R4                      YES, BRANCH
         SPACE 3
*** PARSE POST PROCESSING OF OPERANDS IS COMPLETE
PARSPOST SR    R15,R15
         IC    R15,R14PARSE
         SPACE 1
         LA    R14,MAXPARSE         RETURN CODE LIMIT
         CR    R15,R14              RETURN CODE WITHIN LIMITS?
         BH    PARSEBAD             NO, ERROR
         SPACE 1
         LA    R3,4                 OFFSET OF RETURN IF SUCCESSFUL
         B     *+4(R15)             PROCESS RETURN CODE
PARSERET B     PARSEOK                00 - SUCCESSFUL
         B     EXIT8N                 04 - PARSE UNABLE TO PROMPT
         B     PARSERR                08 - USER ENTERED ATTENTION
         B     PARSEBAD               12 - INVALID PARAMETERS
         B     PARSEBAD               16 - PARSE INTERNAL FAILURE
         B     EXIT8N                 20 - VALIDITY CHECK ERROR
MAXPARSE EQU   *-PARSERET
         SPACE 2
PARSEBAD LA    R1,GFPARMS
         ST    R1,GFPARMP           SAVE ADDRESS OF PARMLIST
         L     R0,ADDRFF02          ADDRESS OF IKJEFF02
         STM   R15,R0,GFRCODE       SAVE GFRCODE AND GF02PTR
         LA    R1,GFPARSE
         STH   R1,GFCALLID          SAVE CALLER-ID FOR PARSE
         L     R0,ADDRCPPL          CPPL
         LA    R1,ATTNECB           ATTENTION ECB
         STM   R0,R1,GFCPPLP        SAVE GFCPPLP AND GFECBP
         MVI   ATTNECB,0            CLEAR THE ECB
         LINK  EP=IKJEFF19,MF=(E,GFPARMP)
         CLI   R14PARSE,X'4'        USER ENTER ATTENTION?
         BE    PARSERR              YES, BRANCH -- IGNORE COMMAND
         LTR   R15,R15              ERROR MESSAGE OUTPUT?
         BZ    EXIT8N               YES, BRANCH
         CVD   R15,DOUBLE
         MVI   MTHIGHL,4
         MVC   INSERT#1(4),=X'40202120'
         ED    INSERT#1(4),DOUBLE+6
         MVI   INSERT#1,C'='
         LA    R1,L834$1
         B     EXIT8M
         SPACE 1
PARSERR  SR    R3,R3                RETURN AT OFFSET 0
         SPACE 1
PARSEOK  BAS   R2,FREEPDL           FREE PARSE STORAGE
         L     R8,R8PARSE           ORIGINAL BASE REGISTER
         L     R14,R14PARSE         EXIT BASE ADDRESS
         B     0(R3,R14)            EXIT FROM PARSE AT +0 OR +4
         SPACE 2
PARSATTN BAS   R2,FREEPDL           FREE PARSE STORAGE
         B     NEWCMD
         SPACE 2
*
*        PARSE CLEANUP ROUTINE
*
         SPACE 1
FREEPDL  IKJRLSA ADDRANSR            RELEASE THE STORAGE
         SPACE 1
         XC    ADDRANSR,ADDRANSR
         BR    R2
         SPACE 3
*
*        ROUTINE TO CONVERT HEXADECIMAL INPUT TO BINARY
*
         SPACE 1
*R5          START OF STRING
*R1          LENGTH OF STRING; WHERE OUTPUT GOES
*MSGTEXT1    PROMPTING MESSAGE FOR ANY ERROR
*MSGTEXT2+0  LENGTH OF RESULT
*MSGTEXT2+1  MAXIMUM LENGTH OF RESULT
*MSGTEXT2+4  RESULTANT STRING
*R0          RESULT IN BINARY (UP TO FOUR BYTES)
*R2          RETURN REGISTER
         SPACE 1
HEXC     STC   R1,MSGTEXT2+2        ORIGINAL STRING LENGTH
         LA    R3,1(,R1)            STRING LENGTH +1
         N     R3,=F'-2'            NEXT EVEN NUMBER
         SR    R15,R15              ZERO
         LA    R0,2                 PAIRWISE COUNTER
         BCTR  R5,0                 PREPARE FOR THE FIRST ADD
         CR    R1,R3                EVEN LENGTH ORIGINALLY?
         SRL   R3,1
         STC   R3,MSGTEXT2          (STRING LENGTH +1)/2
         LA    R1,MSGTEXT2+4        WHERE OUTPUT GOES
         BNE   HEXC20               NO, BRANCH
         SPACE 1
HEXC10   LA    R5,1(,R5)            NEXT CHARACTER
         IC    R15,0(,R5)           GET A BYTE TO CONVERT
         CLI   0(R5),C'0'
         BL    *+12                 0-9?
         CLI   0(R5),C'9'
         BNH   HEXC20               YES, BRANCH
         SPACE 1
         LA    R15,9(,R15)          NO, ADJUST LOW DIGIT 1-5 TO A-F
         CLI   0(R5),C'A'           BELOW AN A?
         BL    HEXC50               YES, INVALID
         CLI   0(R5),C'F'           ABOVE AN F?
         BH    HEXC50               YES, INVALID
         SPACE 1
HEXC20   SLL   R15,28               SHIFT
         SLDL  R14,4                GET A GOOD DIGIT
         BCT   R0,HEXC10            DO THE NEXT DIGIT OF A PAIR
         LA    R0,2                 PAIRWISE COUNTER
         STC   R14,0(,R1)           SAVE AN OUTPUT CHARACTER
         LA    R1,1(,R1)            ANOTHER OUTPUT CHARACTER
         BCT   R3,HEXC10            DO ALL DIGITS
         SPACE 2
         CLC   MSGTEXT2(1),MSGTEXT2+1  TOO MANY DIGITS?
         BH    HEXC40                  YES, INVALID
         ICM   R0,B'1111',MSGTEXT2+4   RESULT REGISTER
         CLI   MSGTEXT2,3              LENGTH:3
         BH    4(R2)                     ABOVE, DONE
         SRL   R0,8
         BE    4(R2)                     EQUAL, RETURN
         SRL   R0,8
         CLI   MSGTEXT2,1              LENGTH:1
         BH    4(R2)                     ABOVE, DONE
         SRL   R0,8
         B     4(R2)                     EQUAL, RETURN
         SPACE 3
HEXC40   M$MSG L840                 STRING IS TOO LONG
         B     HEXC60
         SPACE 1
HEXC50   M$MSG L841                 INVALID HEXADECIMAL DIGITS
         SPACE 1
HEXC60  M$PUTGT MSGTEXT1,ATTN=0(R2) SECOND PART OF MESSAGE
         L     R5,ADDRCBUF          ENTERED DATA
         LH    R1,0(,R5)            LENGTH OF STRING
         LA    R5,4(,R5)            START OF DATA IN THE STRING
         SH    R1,=H'5'             VALID MACHINE LENGTH?
         LA    R3,0(R5,R1)          LAST BYTE OF INPUT STRING
         BZ    HEXC90               MAYBE, CHECK FURTHER
         BNP   HEXC60               NO, NULL STRING -- PROMPT AGAIN
         SPACE 1
HEXC70   CLI   0(R3),X'40'          SCAN
         BNE   HEXC80                   BACKWARDS
         BCTR  R3,0                              FOR A
         BCT   R1,HEXC70                               NON-BLANK
         B     HEXC90               POSSIBLE STRING -- CHECK
         SPACE 1
HEXC80   CLI   0(R5),X'40'          SCAN
         BNE   HEXC90                   FORWARDS
         LA    R5,1(,R5)                        FOR A
         BCT   R1,HEXC80                              NON-BLANK
         SPACE 1
HEXC90   CLI   0(R5),X'40'          REAL STRING?
         BE    HEXC60               NO, PROMPT AGAIN
         MVI   MSGTEXT2+4,X'40'     BLANKS FOR
         MVC   MSGTEXT2+5(40),MSGTEXT2+4      UPPER-CASING INPUTS
         OC    0(*-*,R5),MSGTEXT2+4 <<EXECUTED>>
         EX    R1,*-6               UPPER-CASE THE INPUT DATA
         LA    R1,1(,R1)            ACTUAL STRING LENGTH
         B     HEXC                 PARSE THIS NEW STRING
         SPACE 2
PACKMAX  LH    R15,4(,R1)             NUMBER OF DIGITS
         S     R15,=F'1'              ANY CODED?
         BM    4(R14)                 NO, RETURN AT +4
         L     R1,0(,R1)              POINT TO INPUT STRING
         EX    R15,PACKNUMB           PACK ALL THE DIGITS
         CVB   R1,DOUBLE              CONVERT TO BINARY
         BR    R14                    RETURN AT +0
PACKNUMB PACK  DOUBLE(8),0(*-*,R1)    <<EXECUTED>>
         SPACE 3
PARSEINN CSECT
         USING PDLATTR,R6
         USING *,R4
ZATTRIB  MVC   #ALIAOPT(1),INFOALIA+1     SAVE ALIASINFO/NOALIAS/SHORT
         MVC   #LKEDOPT(1),INFOLKED+1     SAVE LKEDDATE/NOLKEDDATE
         MVC   #RLDERR(1),LKEDRLDF+1      SAVE RLDFIX/NORLDFIX
         MVC   #UNALIAS(1),LKEDUNAL+1     SAVE UNALIAS
         MVC   #ADDSTAT(1),LKEDNONE+1     SAVE NONE/ADDSTAT
         SPACE 1
         CLI   LKEDNONE+1,X'01'           NONE ATTRIBUTE USED?
         BNE   ZATTR00                    NO, BRANCH
         TM    FLAGSCC,RECFMU             LOAD MODULE?
         BNO   ZATTR00                    NO, BRANCH
         MVI   #ADDSTAT,0                 CLEAR NONE/ADDSTAT FOR LOAD
         MVI   #AUTHOPT,2                 SIMULATE "NOAUTH"
         MVI   #PAGEOPT,2                 SIMULATE "NOPAGE"
         MVI   #RMODE,1                   SIMULATE "RMODE24"
         MVI   #AMODE,1                   SIMULATE "AMODE24"
         MVI   #SSIOPT,2                  SIMULATE "NOSSI"
         OI    #ATTRNO,ATTRREUS+ATTRRENT+ATTRLOAD  "NO" REUS/RENT/LOAD
         OI    #ATTRNO+1,ATTRREFR+ATTRNE  "NOREFR" AND "EDIT"
         OI    #ATTRYES,ATTREXEC          "EXEC"
         OI    #ATTRYES+1,ATTRNODC        "NODC"
         SPACE 2
ZATTR00  LA    R1,ATTRVER               VER(NUMBER)
         BAS   R14,PACKMAX              ANY RESULT?
         B     *+8                      YES, BRANCH
         B     ZATTR02                  NO, BRANCH
         OI    #ATTROPT,X'40'           SET A FLAG
         STC   R1,#ATTRVER              SAVE RESULT
         SPACE 2
ZATTR02  LA    R1,ATTRMOD               MOD(NUMBER)
         BAS   R14,PACKMAX              ANY RESULT?
         B     *+8                      YES, BRANCH
         B     ZATTR04                  NO, BRANCH
         OI    #ATTROPT,X'20'           SET A FLAG
         STC   R1,#ATTRMOD              SAVE RESULT
         SPACE 2
ZATTR04  MVC   #USERTXT(8),BLANKS       BLANK THE USERID AREA
         LH    R15,ATTRUSER+4           LENGTH OF STRING
         S     R15,=F'1'                ANY STRING?
         BM    ZATTR08                  NO, BRANCH
         OI    #ATTROPT,X'80'           SET A FLAG FOR LATER
         L     R1,ATTRUSER              ADDRESS OF ENTRY STRING
         MVC   #USERTXT(*-*),0(R1)      <<EXECUTED>>
         EX    R15,*-6                  SAVE THE STRING FOR LATER
         SPACE 2
ZATTR08  TM    FLAGSCC,RECFMU             LOAD MODULE?
         BO    ZATTR10                    YES, BRANCH
         CLI   #ADDSTAT,1                 NONE REQUESTED?
         BNE   ZATTR10                    NO, BRANCH
         OI    FLAGSII,FSINGLE            YES, FORCE SINGLE BUFFERING
         SPACE 2
ZATTR10  ICM   R1,B'0001',LKEDAUTH+1    AUTH/NOAUTH
         BZ    *+8
         STCM  R1,B'0001',#AUTHOPT
         ICM   R1,B'0001',LKEDPAGE+1    PAGE/NOPAGE
         BZ    *+8
         STCM  R1,B'0001',#PAGEOPT
         ICM   R1,B'0001',LKEDRMOD+1    RMODE24/RMODEANY
         BZ    *+8
         STCM  R1,B'0001',#RMODE
         ICM   R1,B'0001',LKEDAMOD+1    AMODE24/AMODE31/AMODEANY
         BZ    *+8
         STCM  R1,B'0001',#AMODE
         ICM   R1,B'0001',LKEDSSIK+1    SSI/NOSSI
         BZ    *+8
         STCM  R1,B'0001',#SSIOPT
         SPACE 2
ZATTR30  CLI   LKEDREUS+1,X'01'       REUSABLE ATTRIBUTE STATUS:
         BL    ZATTR34                  NONE, BRANCH
         BH    ZATTR32                  "NO" FORM, BRANCH
         OI    #ATTRYES,ATTRREUS        "REUS"
         NI    #ATTRNO,FF-ATTRREUS      MAKE SURE NEGATIVE IS OFF
         B     ZATTR34
ZATTR32  OI    #ATTRNO,ATTRREUS         "NOREUS"
         SPACE 1
ZATTR34  CLI   LKEDREFR+1,X'01'       REFRESHABLE ATTRIBUTE STATUS:
         BL    ZATTR40                  NONE, BRANCH
         BH    ZATTR36                  "NO" FORM, BRANCH
         OI    #ATTRYES+1,ATTRREFR      "REFR"
         NI    #ATTRNO+1,FF-ATTRREFR    MAKE SURE NEGATIVE IS OFF
         B     ZATTR40
ZATTR36  OI    #ATTRNO+1,ATTRREFR       "NOREFR"
         SPACE 1
ZATTR40  CLI   LKEDRENT+1,X'01'       REENTRANT ATTRIBUTE STATUS:
         BL    ZATTR44                  NONE, BRANCH
         BH    ZATTR42                  "NO" FORM, BRANCH
         OI    #ATTRYES,ATTRRENT        "RENT"
         NI    #ATTRNO,FF-ATTRRENT      MAKE SURE NEGATIVE IS OFF
         B     ZATTR44
ZATTR42  OI    #ATTRNO,ATTRRENT         "NORENT"
         SPACE 1
ZATTR44  CLI   LKEDEXEC+1,X'01'       EXECUTABLE ATTRIBUTE STATUS:
         BL    ZATTR50                  NONE, BRANCH
         BH    ZATTR46                  "NO" FORM, BRANCH
         OI    #ATTRYES,ATTREXEC        "EXEC"
         NI    #ATTRNO,FF-ATTREXEC      MAKE SURE NEGATIVE IS OFF
         B     ZATTR50
ZATTR46  OI    #ATTRNO,ATTREXEC         "NOEXEC"
         SPACE 1
ZATTR50  CLI   LKEDLOAD+1,X'01'       LOADABLE ATTRIBUTE STATUS:
         BL    ZATTR54                  NONE, BRANCH
         BH    ZATTR52                  "NO" FORM, BRANCH
         OI    #ATTRYES,ATTRLOAD        "LOAD"
         NI    #ATTRNO,FF-ATTRLOAD      MAKE SURE NOLOAD IS OFF
         B     ZATTR54
ZATTR52  OI    #ATTRNO,ATTRLOAD         "NOLOAD"
         SPACE 1
ZATTR54  CLI   LKEDEDIT+1,X'01'       NOT EDITABLE ATTRIBUTE STATUS:
         BL    ZATTR60                  NONE, BRANCH
         BH    ZATTR56                  "NO" FORM, BRANCH
         OI    #ATTRNO+1,ATTRNE        "EDIT"  -- BIT MUST BE REVERSED
         B     ZATTR60
ZATTR56  OI    #ATTRYES+1,ATTRNE        "NOEDIT"
         NI    #ATTRNO+1,FF-ATTRNE     MAKE SURE EDIT IS OFF
         SPACE 1
ZATTR60  CLI   LKEDDC+1,X'01'         DC ATTRIBUTE STATUS:
         BL    ZATTR70                  NONE, BRANCH
         BH    ZATTR62                  "NO" FORM, BRANCH
         OI    #ATTRNO+1,ATTRNODC       "DC"
         NI    #ATTRYES+1,FF-ATTRNODC   MAKE SURE NODC IS OFF
         B     ZATTR70
ZATTR62  OI    #ATTRYES+1,ATTRNODC      "NODC"
         SPACE 1
ZATTR70  TM    LKEDSSI+6,X'80'      STRING CODED?
         BNO   ZATTR80              NO, DONE
         L     R5,LKEDSSI           NEW STRING ADDRESS
         LH    R1,LKEDSSI+4         LENGTH OF STRING
         LTR   R1,R1                NULL STRING CODED?
         BNP   ZATTR80              YES, DONE
         MVI   MSGTEXT2+1,4         MAXIMUM OF 4 DIGITS
         MVC   MSGTEXT1,PDS385A     SSI MESSAGE
         BAS   R2,HEXC              CONVERT TO BINARY
         B     PARSATTN             ATTENTION -- IGNORE THE REST
         STCM  R0,B'1111',#SSITEXT  SAVE THE RESULTING TTR
         SPACE 2
ZATTR80  MVC   #MODTXT(8),BLANKS      BLANK THE MODULE AREA
         LH    R15,AENTRYS+4          LENGTH OF BLOCK/DUMP STRING
         S     R15,=F'1'              ANY STRING?
         BM    ZATTR99                NO, BRANCH
         MVI   #OPTOPT,X'FF'          SET A FLAG FOR LATER
         L     R1,AENTRYS             ADDRESS OF ENTRY STRING
         MVC   #MODTXT(*-*),0(R1)     <<EXECUTED>>
         EX    R15,*-6                SAVE THE STRING FOR LATER
         SPACE 2
ZATTR99  OC    #ZAPOPT(14),#ZAPOPT    ANY LINKAGE EDITOR ATTRIBUTES?
         BZ    *+8                    NO, BRANCH
         MVI   #OPTOPT,FF             YES, SET A FLAG FOR LATER
         CLI   #SSIOPT,0              ANY SSI CHANGE?
         BE    *+8                    NO, BRANCH
         OI    #OPTOPT,X'F0'          YES, SET A FLAG FOR LATER
         CLI   #UNALIAS,0             ANY UNALIAS?
         BE    *+8                    NO, BRANCH
         OI    #OPTOPT,X'F0'          YES, SET A FLAG FOR LATER
         CLI   #ADDSTAT,0             ANY NONE/ADDSTAT?
         BE    *+8                    NO, BRANCH
         OI    #OPTOPT,X'F0'          YES, SET A FLAG FOR LATER
         XC    #ATTRNO(2),=F'-1'      INVERT THE #ATTRNO BITS
         B     PARSPOST
         SPACE 2
         USING PDLCOMPA,R6
         USING *,R4
ZCOMPARE MVC   MSGDS1(64),BLANK128  CLEAR THE DATA SET NAME AREA
         LH    R2,PCLCAR1+4         LENGTH OF STRING
         STH   R2,MSGDS1+62         SAVE LENGTH USED
         BCTR  R2,0                 MACHINE LENGTH
         L     R1,PCLCAR1           NEW STRING ADDRESS
         MVC   MSGDS1(*-*),0(R1)    <<EXECUTED>>
         EX    R2,*-6               MOVE IN ANY OTHER OPERANDS
         SPACE 1
         MVC   MSGDS2(64),BLANK128  CLEAR THE DATA SET NAME AREA
         LH    R2,PCLCAR2+4         LENGTH OF STRING
         STH   R2,MSGDS2+62         SAVE LENGTH USED
         BCTR  R2,0                 MACHINE LENGTH
         L     R1,PCLCAR2           NEW STRING ADDRESS
         MVC   MSGDS2(*-*),0(R1)    <<EXECUTED>>
         EX    R2,*-6               MOVE IN ANY OTHER OPERANDS
         SPACE 1
         TM    PCLCOSTR+6,X'80'     ANY STRING CODED?
         BNO   PARSPOST             NO, BRANCH
         LH    R2,PCLCOSTR+4        LENGTH OF STRING
         CH    R2,=H'100'           LENGTH(STRING)>=100?
         BL    *+8                  NO, BRANCH
         LH    R2,=H'100'           YES, USE 100 AS A MAXIMUM LENGTH
         STH   R2,#COMMDSZ          SAVE LENGTH USED
         BCTR  R2,0                 MACHINE LENGTH
         MVC   MSGLINE(100),BLANK128  BLANK THE TEXT AREA
         L     R1,PCLCOSTR          NEW STRING ADDRESS
         MVC   MSGLINE(*-*),0(R1)   <<EXECUTED>>
         EX    R2,*-6               MOVE IN ANY OTHER OPERANDS
         B     PARSPOST
         SPACE 2
         USING PDLCOMPR,R6
         USING *,R4
ZCOMPRES MVC   #CMXFLAG(1),CMXLIST+1     SAVE SUMMARY/LIST/NOLIST
         MVC   #CMXSHR(1),CMXSHARE+1     SAVE SHR
         B     PARSPOST
         SPACE 2
         USING PDLCONT,R6
         USING *,R4
ZCONTROL MVC   #OUT+0(1),PALINCON+1
         MVC   #OUT+1(1),PTRANCON+1
         MVC   #OUT+2(1),PLKEDCON+1
         MVC   #OUT+3(1),PPROMCON+1
         MVC   #OUT+4(1),PRECVCON+1
         MVC   #OUT+5(1),PDOUBCON+1
         MVC   #OUT+7(1),PIMMCON+1
         MVC   #OUT+10(1),CLOGTYPE+1      SYSOUT/NOSYSOUT/DSNAME/NODSN
         MVC   #OUT+11(1),CLOGDISP+1      OLD/SHR/MOD/NEW
         MVC   #OUT+12(1),CLOGFORM+1      FORM/NOFORM
         MVC   #OUT+13(1),CLOGDEST+1      DEST/NODEST
         MVC   #OUT+30(80),BLANK128       CLEAR THE OPERANDS
         LH    R15,CDESTT+4               LENGTH OF STRING
         STH   R15,#OUT+14                14,15
         S     R15,=F'1'                  ANY DATA?
         BM    ZCONT010                   NO, BRANCH
         L     R1,CDESTT
         MVC   #OUT+30(*-*),0(R1)         <<EXECUTED>> 30-37
         EX    R15,*-6                    MOVE IT IN
         SPACE 1
ZCONT010 LH    R15,CFORMT+4               LENGTH OF STRING
         STH   R15,#OUT+16                16,17
         S     R15,=F'1'                  ANY DATA?
         BM    ZCONT020                   NO, BRANCH
         L     R1,CFORMT
         MVC   #OUT+38(*-*),0(R1)         <<EXECUTED>> 38-41
         EX    R15,*-6                    MOVE IT IN
         SPACE 1
ZCONT020 LH    R15,CSYSOUTT+4             LENGTH OF STRING
         S     R15,=F'1'                  ANY DATA?
         BM    ZCONT030                   NO, BRANCH
         L     R1,CSYSOUTT
         MVC   CONTSYS(1),0(R1)           <<EXECUTED>>
         SPACE 1
ZCONT030 L     R15,CDSNAMET               ADDRESS OF DSNAME
         LH    R14,CDSNAMET+4             LENGTH OF DSNAME
         STH   R14,#OUT+18                18,19
         S     R14,=F'1'                  ANY DATA?
         BM    ZCONT060                   NO, BRANCH
         MVC   #OUT+44(*-*),0(R15)        <<EXECUTED>> 44-87
         EX    R14,*-6                    MOVE IT IN
         SPACE 1
         TM    CDSNAMET+14,X'80'          ANY MEMBER?
         BZ    ZCONT034                   NO, BRANCH
         L     R15,CDSNAMET+8             ADDRESS OF DSNAME
         LH    R14,CDSNAMET+12            LENGTH OF MEMBER
         STH   R14,#OUT+20                20,21
         S     R14,=F'1'                  ANY DATA?
         BM    ZCONT060                   NO, BRANCH
         MVC   #OUT+88(*-*),0(R15)        <<EXECUTED>> 88-95
         EX    R14,*-6                    MOVE IT IN
         SPACE 1
ZCONT034 TM    CDSNAMET+22,X'80'          ANY PASSWORD?
         BZ    ZCONT060                   NO, BRANCH
         L     R15,CDSNAMET+16            ADDRESS OF DSNAME
         LH    R14,CDSNAMET+20            LENGTH OF MEMBER
         STH   R14,#OUT+22                22,23
         S     R14,=F'1'                  ANY DATA?
         BM    ZCONT060                   NO, BRANCH
         MVC   #OUT+96(*-*),0(R15)        <<EXECUTED>> 96-103
         EX    R14,*-6                    MOVE IT IN
*
ZCONT060 LA    R1,CRETAINA                NUMBER(COUNT)
         BAS   R14,PACKMAX                CONVERT TO BINARY
         STH   R1,INUMSAV                 SAVE RESULT
         LH    R1,INUMSAV                 GET RESULT
         LA    R2,FIRST4K
         LA    R2,IOBUFN-FIRST4K(,R2)     START OF BUFFER ADDRESSES
         DROP  R6
         LTR   R6,R1                      NUMBER OF ELEMENTS=0?
         BNZ   *+8                        NO, BRANCH
         LA    R6,1                       YES, USE 1
         CH    R6,=AL2((IOBUFEND-IOBUFN)/32)   TOO MANY ELEMENTS?
         BL    *+8                             NO, BRANCH
         LH    R6,=AL2((IOBUFEND-IOBUFN)/32)   YES, USE THE MAX
         STH   R6,INUMSAV                 SET RESULT IN LIMITS
*
ZCONT062 ICM   R1,B'1111',0(R2)           ANY BUFFER ADDRESS?
         BNZ   ZCONT066                   YES, BRANCH
         L     R0,=F'58786'               MAX 3390 TRACK LEN  DRK FEB00
         TM    FLAGSFF,FSPFCALL+FSPFDIAL  SPF INITIALIZED?
         BM    ZCONT064                   YES, BRANCH
         AIF   ('&CISP' NE 'ISPFV2').NSPFCNT
         TM    FLAGSFF,FSPFOPT6           CALLED FROM OPTION 6?
         BO    ZCONT064                   YES, BRANCH
.NSPFCNT ANOP
         PRINT GEN
         GETMAIN RC,LV=(0),SP=23          GET MORE BUFFER STORAGE
         LTR   R15,R15                    ANY PROBLEM?
         BNZ   ZCONT067                   YES, BRANCH
         MVI   SUBLIST1,23                MARK FOR LATER RELEASE
         B     ZCONT065
ZCONT064 GETMAIN RC,LV=(0),SP=24          GET MORE BUFFER STORAGE
         LTR   R15,R15                    ANY PROBLEM?
         BNZ   ZCONT067                   YES, BRANCH
         MVI   SUBLIST2,24                MARK FOR LATER RELEASE
         PRINT NOGEN
ZCONT065 STCM  R1,B'1111',0(R2)           UPDATE BUFFER ADDRESS
ZCONT066 LA    R2,32(,R2)                 NEXT ELEMENT STORAGE
         BCT   R6,ZCONT062                DO ALL N ELEMENTS
         B     PARSPOST
*
*        GETMAIN FAILED; UPDATE WITH THE NUMBER OBTAINED
ZCONT067 SR    R1,R1                      COUNT SUCCESSFUL GETMAINS
         LA    R2,FIRST4K
         LA    R2,IOBUFN-FIRST4K(,R2)     START OF BUFFER ADDRESSES
         LH    R6,INUMSAV                 MAXIMUM GETMAINS
*
ZCONT068 ICM   R0,B'1111',0(R2)           ANY BUFFER ADDRESS?
         BZ    ZCONT069                   NO, QUIT
         LA    R1,1(,R1)                  ANOTHER GOOD GETMAIN
         LA    R2,32(,R2)                 NEXT ELEMENT STORAGE
         BCT   R6,ZCONT068                DO ALL N ELEMENTS
ZCONT069 STH   R1,INUMSAV                 UPDATE WITH ACTUAL GETMAINS
         B     PARSPOST
         SPACE 2
         USING PDLCOPY,R6
         USING *,R4
ZCOPY    MVC   #CMXFLAG(1),COPLIST+1  SAVE SUMMARY/LIST/NOLIST
         MVC   #CMXSHR(1),COPDISP+1   SAVE SHR/OLD/NEW
         MVC   #COPREP(1),COPREPL+1   SAVE REPLACE/NOREPLACE
         MVC   #COPALI(1),COPALIAS+1  SAVE ALIAS/NOALIAS
         MVC   #COPNCAL(1),COPCALL+1  SAVE CALL/NOCALL
         MVC   #COPTRCY(1),COPTRCYL+1 SAVE TRK/CYL
         MVC   #COPEXST(1),COPEXIST+1 SAVE EXIST/NOEXIST/NOBLDL/EXCLUDE
         SPACE 1
         MVC   MSGDS2(64),BLANK128    CLEAR THE DATA SET NAME AREA
         LH    R2,COPDSN2+4           LENGTH OF STRING
         STH   R2,MSGDS2+62           SAVE LENGTH USED
         BCTR  R2,0                   MACHINE LENGTH
         L     R1,COPDSN2             NEW STRING ADDRESS
         MVC   MSGDS2(*-*),0(R1)      <<EXECUTED>>
         EX    R2,*-6                 MOVE IN THE STRING
***TEST  LA    R1,FIRST4K
***TEST  CLC   MSGDS2(2),=C'* '               PREVIOUS DSNAME DESIRED?
***TEST  BNE   ZCOPY02                        NO, BRANCH
***TEST  CLI   PMSGDS2-FIRST4K(R1),0          ANY PREVIOUS DSNAME?
***TEST  BE    ZCOPY10                        NO, ERROR
***TEST  MVC   MSGDS2(64),PMSGDS2-FIRST4K(R1) YES, REFRESH
***PY02  MVC   PMSGDS2-FIRST4K(64,R1),MSGDS2  SAVE CURRENT DSNAME
         SPACE 1
ZCOPY10  TM    COPVOL+6,X'80'       ANY NAME REQUESTED?
         BNO   ZCOPY20              NO, BRANCH
         LH    R15,COPVOL+4         LENGTH OF NAME
         S     R15,=F'1'            VALID?
         BM    ZCOPY20              NO, BRANCH
         MVC   #COPVOL(6),BLANKS    INITIALIZE VOLUME NAME
         L     R1,COPVOL            ADDRESS OF NAME
         MVC   #COPVOL(*-*),0(R1)   <<EXECUTED>>
         EX    R15,*-6              MOVE IN THE NAME
         SPACE 1
ZCOPY20  TM    COPAS+6,X'80'        ANY NAME REQUESTED?
         BNO   ZCOPY30              NO, BRANCH
         LH    R15,COPAS+4          LENGTH OF NAME
         STC   R15,#COPTO#          SAVE STRING LENGTH
         S     R15,=F'1'            VALID?
         BM    ZCOPY30              NO, BRANCH
         MVC   #COPTON(8),BLANKS    INITIALIZE TO BLANKS
         L     R1,COPAS             ADDRESS OF NAME
         MVC   #COPTON(*-*),0(R1)   <<EXECUTED>>
         EX    R15,*-6              MOVE IN THE NAME
         SPACE 1
ZCOPY30  LA    R1,COPDIRCO          DIR(COUNT)
         BAS   R14,PACKMAX          CONVERT TO BINARY