*          DATA SET CBT380     AT LEVEL 004 AS OF 06/15/77
         MACRO
&NAME    DEBCHK &CBAD,&TYPE=,&AM=,&MF=O
.*
.*                       *****************
.*                       *   VARIABLES   *
.*                       *  DECLARATION  *
.*                       *****************
.*
         LCLB  &AM0,&AM1,&AM2,&AM3,&AM4,&AM5,&AM6,&AM7
         LCLB  &TYPEA,&TYPED,&TYPEV,&TYPEP,&ERR
         LCLC  &REG,&LABEL,&AMFC,&AMSC
         LCLA  &A
.*
.*                       **********
.*                       * VERIFY *
.*                       *  INPUT *
.*                       **********
.*
         AIF   ('&MF' EQ 'O').DBCK020   BRANCH IF &MF OMITTED
         AIF   ('&MF' EQ 'L').DBCK040   BRANCH IF &MF=L
         IHBERMAC 1001,MF,&MF
&ERR     SETB  1
.*
.*                       TEST &CBAD
.*
.DBCK020 AIF   (T'&CBAD NE 'O').DBCK040 BRANCH IF &CBAD SPECIFIED
&ERR     SETB  1                        SET ERROR INDICATOR
         IHBERMAC  2
.*
.*                       ESTABLISH AND TEST &AM VALUE
.*
.DBCK040 AIF   (T'&AM NE 'O').DBCK060   BRANCH IF &AM SPECIFIED
         AIF   ('&MF' NE 'L').DBCK120   BRANCH IF NOT LIST FORM
         IHBERMAC 1006,AM
&ERR     SETB  1
         AGO   .DBCK140
.DBCK060 ANOP
&AMFC    SETC  '&AM'(1,1)               FIRST CHARACTER OF &AM
         AIF   ('&AMFC' NE '(').DBCK080 BRANCH IF &AM TO BE CALCULATED
         AIF   ('&MF' EQ 'L').DBCK100   BRANCH IF LIST FORM
         AGO   .DBCK120                 &AM IS VALID
.DBCK080 ANOP
&AM0     SETB  ('&AM' EQ 'ISAM')
&AM1     SETB  ('&AM' EQ 'BDAM')
&AM2     SETB  ('&AM' EQ 'SAM' OR '&AM' EQ 'BPAM')
&AM3     SETB  ('&AM' EQ 'TAM')
&AM4     SETB  ('&AM' EQ 'GAM')
&AM5     SETB  ('&AM' EQ 'TCAM')
&AM6     SETB  ('&AM' EQ 'EXCP')
&AM7     SETB  0
         AIF   (&AM0 OR &AM1 OR &AM2 OR &AM3 OR &AM4 OR &AM5 OR &AM6   X
               OR &AM7).DBCK120         BRANCH IF &AM VALID
.DBCK100 ANOP
&ERR     SETB  1                        SET ERROR INDICATOR
         IHBERMAC 1001,AM,&AM
.*
.*                       ESTABLISH AND TEST &TYPE VALUE
.*
.DBCK120 AIF   ('&MF' EQ 'L').DBCK140   BRANCH IF LIST FORM
&TYPEA   SETB  ('&TYPE' EQ 'ADD')
&TYPED   SETB  ('&TYPE' EQ 'DELETE')
&TYPEP   SETB  ('&TYPE' EQ 'PURGE')
.*                                      VERIFY IS DEFAULT TYPE
&TYPEV   SETB  ('&TYPE' EQ 'VERIFY' OR T'&TYPE EQ 'O')
.*                                      BRANCH IF NO ERROR
         AIF   (&TYPEA OR &TYPED OR &TYPEV OR &TYPEP).DBCK140
         IHBERMAC 1001,TYPE,&TYPE
         AGO   .DBCK160                 EXIT BECAUSE OF ERROR
.DBCK140 AIF   (NOT &ERR).DBCK220       BRANCH IF NO SYNTAX ERRORS
.*                                      GENERATE NAME IF NO CODE GENNED
.*
.*                       ERROR EXIT
.*
.DBCK160 AIF   ('&NAME' EQ '').DBCK200  DON'T GENERATE NAME IF NULL
         AIF   ('&MF' NE 'L').DBCK180   BRANCH IF NOT LIST FORM
&NAME    DS    0C
         MEXIT
.DBCK180 ANOP
&NAME    DS    0H
.DBCK200 MEXIT
.*
.*                       ************
.*                       * GENERATE *
.*                       *   CODE   *
.*                       ************
.*
.DBCK220 ANOP
&LABEL   SETC  '&NAME'                  SET LABEL FOR FIRST GENERATED
         AIF   ('&MF' EQ 'L').DBCK340   BRANCH IF LIST FORM
.*                                      LINE OF CODE
.*
.*                       FUNCTION TYPE VALUE
.*
.*                         VERIFY       0
.*                         ADD          1
.*                         DELETE       2
.*                         PURGE        3
.*
         AIF   (&TYPEV).DBCK240         BRANCH IF VERIFY
&A       SETA  &TYPEA*1+&TYPED*2+&TYPEP*3 SET AM TYPE
&LABEL   LA    0,&A                     LOAD TYPE VALUE
&LABEL   SETC  ''                       LABEL NOT TO BE GENERATED AGAIN
.DBCK240 AIF   (T'&AM NE 'O').DBCK260   BRANCH IF &AM SPECIFIED
         AIF   (NOT &TYPEV).DBCK420     BRANCH IF ADD OR DELETE TYPE
&LABEL   SR    0,0                      LOAD TYPE AND AM VALUE
         AGO   .DBCK420
.*
.*                       ACCESS METHOD TYPE VALUE
.*
.*                          ISAM        80
.*                          BDAM        40
.*                          SAM/BPAM    20
.*                          TAM         10
.*                          GAM         08
.*                          TCAM        04
.*                          EXCP        02
.*                          OMITTED     00
.*
.DBCK260 ANOP
&REG     SETC  '0'                      INITIALIZE TO REG 0
         AIF   (&TYPEV).DBCK280         BRANCH IF TYPE IS VERIFY
&REG     SETC  '15'                     USE REG 15 IF ADD OR DELETE
.DBCK280 AIF   ('&AMFC' NE '(').DBCK340 BRANCH IF &AM TO BE CALCULATED
&AMSC    SETC  '&AM'(2,1)               SECOND CHARACTER OF &AM
         AIF   ('&AMSC' EQ '(').DBCK320 BRANCH IF &AM A REGISTER
.*
.*                       &AM VALUE TO BE INSERTED FROM AN ADDRESS
.*
         AIF   (NOT &TYPEV).DBCK300     BRANCH IF NOT VERIFY
&LABEL   SR    0,0                      LOAD TYPE VALUE
&LABEL   SETC  ''                       LABEL NOT TO BE GENERATED AGAIN
.DBCK300 ANOP
&AMFC    SETC  '&AM(1)'                 ADDRESS OF AM VALUE
&LABEL   ICM   0,8,&AMFC                INSERT AM VALUE IN HI BYTE
         AGO   .DBCK420
.*
.*                       &AM VALUE IN A REGISTER
.*
.DBCK320 ANOP
&A       SETA  K'&AM-4                  LENGTH OF REGISTER
&AMFC    SETC  '&AM'(3,&A)              REGISTER CONTAINING AM VALUE
&LABEL   LR    &REG,&AMFC               LOAD AM VALUE
         AGO   .DBCK380                 GO TO SHIFT TO HIGH BYTE
.*
.*                       &AM VALUE TO BE CALCULATED
.*
.DBCK340 ANOP
&A       SETA  128*&AM0+64*&AM1+32*&AM2+16*&AM3+8*&AM4+4*&AM5+2*&AM6
         AIF   ('&MF' NE 'L').DBCK360   BRANCH IF NOT LIST FORM
&NAME    DC    AL1(&A)
         MEXIT
.DBCK360 ANOP
&LABEL   LA    &REG,&A                  LOAD AM VALUE
.DBCK380 SLL   &REG,24                  SHIFT TO HIGH ORDER BYTE
.DBCK400 AIF   (&TYPEV).DBCK420
         OR    0,15                     OR AM TYPE INTO REGISTER 0
.*
.*                       LOAD CB ADDRESS AND SVC ROUTING ID
.*
.DBCK420 IHBINNRA &CBAD                 LOAD CBAD INTO REGISTER 1
         LA    15,2                     DEBCHK SVC ID
         SVC   117
         MEND
*          DATA SET CBT380T    AT LEVEL 001 AS OF 06/09/77
DEBE     TITLE 'OPERATING SYSTEM/360 MULTIFUNCTION UTILITY - VERSION 2'
OSDEBE   START 0
***********************************************************************
*
*  THE PURPOSE OF OSDEBE IS TO PROVIDE THE USER OF 360 OPERATING
*  SYSTEM THE FLEXIBILITY OF THE ORIGINAL DEBE.  FLEXIBILITY CAN
*  ONLY BE OBTAINED BY THE ELIMINATION OF DD CARDS.  ALL FUNCTIONS
*  WHICH ARE AVAILABLE WITH BPS DEBE ARE PROVIDED IN OSDEBE.
*  IN ADDITION, MANY NEW FEATURES HAVE BEEN ADDED; FOR A COMPLETE
*  DESCRIPTION, SEE THE OSDEBE PROGRAM MANUAL.
*
***********************************************************************
*
*  CORE REQUIREMENTS - ABOUT 16K (K=1024), 8K OF WHICH IS USED
*  AS AN I/O AREA FOR TAPE OPERATIONS.
*
*  ERROR RECOVERY - THE OPERATING SYSTEM PERFORMS ALL STANDARD
*  ERROR RECOVERY.  IF IT CANNOT RECOVER FROM AN ERROR, OSDEBE
*  WILL NOT EVEN TRY.
*
*  ALL REPLIES TO OSDEBE ARE OF THE WTOR FORMAT,
*          REPLY 00,'TP'
*  WHENEVER ANY INFORMATION IS REQUESTED BY OSDEBE, A REPLY OF
*  'EJ' WILL TERMINATE THE SUBROUTINE OF OSDEBE.  A REPLY OF 'EJ'
*  IN RESPONSE TO THE REQUEST FOR THE PROGRAM ID WILL TERMINATE
*  OSDEBE AND CONTROL IS RETURNED TO THE OPERATING SYSTEM.
*
*  ONCE A ROUTINE IS RUNNING IN OSDEBE, IT CAN ONLY BE TERMINATED
*  BY CANCELLING THE JOB, AND THE JOB MUST BE RESCHEDULED AGAIN.
*  AN ALTERNATIVE TO CANCELLING THE JOB IS TO CAUSE AN I/O ERROR
*  ON ONE OF THE UNITS BEING USED.  AN I/O ERROR WILL CAUSE THE
*  SUBROUTINE OF OSDEBE TO TERMINATE, BUT OSDEBE WILL STILL BE
*  IN CONTROL.
*
***********************************************************************
         EJECT
*
*  INITIALIZATION
*
         USING  OSDEBE,15
         B     AROUND
         DC    C'OSDEBE-REVISED: CONTACT SYSTEMS PROGRAMMING '
         DC    C'IF ANY PROBLEMS.'
K4096    DC    F'4096'
AROUND   DS    0H
         SAVE  (14,12)
BEGIN    BALR  12,0
         USING *,12,9
         LR    9,12
         A     9,K4096
BEGIN1   EQU   *
         LA    14,SAVEAREA
         ST    13,SAVEAREA+4
         ST    14,8(0,13)
         LR    13,14
         MODESET KEY=ZERO,MODE=SUP     GET INTO SUP STATE        DAL
         GETMAIN R,LV=564,SP=252
         LR    8,1
         LA    3,TDAREA
         LA    3,80(3)  GET ADDRESS OF WORKAREA SKELETONS
         MVC   0(232,8),0(3)
         MVC   232(232,8),232(3)
         USING WORKAREA,8
         LA    3,INDEB
         ST    3,AET1
         LA    3,APPEND
         ST    3,AET2
         ST    3,AET3
         ST    3,AET4
         ST    3,AET5
         ST    3,AET6
         ST    3,AET14
         ST    3,AET15
         ST    3,AET16
         ST    3,AET17
         ST    3,AET18
         LA    3,OUTDEB
         ST    3,AET7-1
         MVI   AET7-1,X'04'
         ST    3,AET13
         LA    3,INDCB
         ST    3,AET8-1
         MVI   AET8-1,X'0F'
         ST    3,AET12
         LA    3,INIOVEC
         ST    3,AET9-1
         MVI   AET9-1,X'02'
         LA    3,INECB
         ST    3,AET10-1
         MVI   AET10-1,X'7F'
         LA    3,INCCW
         ST    3,AET11
         LA    3,OUTDCB
         ST    3,AET19-1
         MVI   AET19-1,X'0F'
         ST    3,AET23
         LA    3,OUTIOVEC
         ST    3,AET20-1
         MVI   AET20-1,X'02'
         LA    3,OUTECB
         ST    3,AET21-1
         MVI   AET21-1,X'7F'
         LA    3,OUTCCW
         ST    3,AET22
         SPACE 5
*  GET CVT POINTER
         L     3,16
*  GET POINTER TO THE TCB POINTERS
         L     2,0(0,3)
*  GET TCB POINTER
         L     3,4(0,2)
*  GET PROTECT KEY FROM TCB FOR THE DEB'S
         OC    INDEB+24(1),28(3)
         OC    OUTDEB+24(1),28(3)
*  GET TCB ADDRESS FOR THE DEB'S
         ST    3,INDEB
         ST    3,OUTDEB
         L     11,8(,3)                ADDR OF TCB DEB QUEUE     DAL
         LA    11,0(,11)               CLR HIGH BYTE NATCH       DAL
         LTR   11,11                   NO DEBS ON QUEUE
         BNZ   CHKDEBAD                NO CHK DEBS FOR NEXT      DAL
         IC    15,8(,3)                SAVE BYTE                 DAL
         LA    1,INDEB                 ADR OF OUR FIRST DEB      DAL
         ST    1,8(,3)                 STORE IT IN TCB           -AL
         STC   15,8(,3)                RESTORE BYTE
         B     DEBCHK                  GO DO DEBCHK MACRO        DAL
CHKDEBAD L     15,4(,11)               ADDR NEXT DEB
         LA    15,0(,15)               CLR HIGH
         LTR   15,15                   END OF CHAIN              DAL
         BZ    STOREDEB                YES STORE DEB ADDR IN DEB DAL
         LR    11,15                   NO CHK NEXT DEB
         B     CHKDEBAD
STOREDEB LA    1,INDEB                 ADDR OUR DEB
         IC    15,4(,11)               SAVE BYTE                 DAL
         ST    1,4(,11)                STORE INTO PREV LAST DEB  DAL
         STC   15,4(,11)               RETURN BYTE TO WHENCE T   DAL
DEBCHK   EQU   *
         LA    11,OUTDCB               GET DCB ADDR              DAL
         DEBCHK (11),TYPE=ADD          PUT DEB ON DEB TABLE      DAL
         LA    11,INDCB                GET DCB ADDR              DAL
         DEBCHK (11),TYPE=ADD          PUT DEB ON DEB TABLE      DAL
     SPACE 2
*   GET SUBPOOL WORK AREA FOR TAPE I/O OPERATIONS
     SPACE 2
         GETMAIN  R,LV=32768,SP=0
         ST    1,TAPEAREA        STORE ADDRESS OF TAPE WORK I/O AREA
     SPACE 2
*  STORE THE ADDRESS IN THE TWO   TAPE CCW'S
     SPACE 2
         MVC   TDINCCW+1(3),TAPEAREA+1
         MVC   TTCCWOUT+1(3),TAPEAREA+1
         EJECT
*
*  MAIN PROGRAM
*  ALL ROUTINES RETURN HERE WHEN THEY ARE FINISHED.
*
ASKAGN   EQU   *
         NI    INIOB,X'3F'         TURN OFF CHAIN FLAGS IN IOB'S
         NI    OUTIOB,X'3F'
         SPACE 2
         NI    TD3+1,X'0F'   RESET SWITCHES SET IN TP ROUTINE
         NI    TD6+1,X'0F'
         SPACE 3
         WTOR  'DEBE: ENT PROG ID - XX',ID,2,REPLYECB
         BAL   11,WAITANS    GO WAIT FOR A REPLY
         OC    ID(2),BLANKS
         CLC   ID(2),=C'EJ'  IS SHE DONE? - EOJ
         BE    EOJ           YES, RETURN TO THE OPERATING SYSTEM
         CLC   ID(2),=C'BF'  BACKSPACE A FILE
         BE    BF
         CLC   ID(2),=C'BS'  BACKSPACE A NUMBER OF RECORDS
         BE    BS
         CLC   ID(2),=C'BT'  BLOCK CARD IMAGE ON TAPE
         BE    BT
         CLC   ID(2),=C'CC'  CARD TO CARD
         BE    CC
         CLC   ID(2),=C'CP'  CARD TO PRINTER
         BE    CP
         CLC   ID(2),=C'CT'  CARD TO TAPE
         BE    CT
         CLC   ID(2),=C'DP'  LIST TAPE TO PRINTER
         BE    DP
         CLC   ID(2),=C'HD'  TAPE LABEL ONTO SYSTEM CONSOLE
         BE    HD
         CLC   ID(2),=C'KC'  COUNT CARDS
         BE    KC
         CLC   ID(2),=C'KR'  COUNT RECORDS
         BE    KR
         CLC   ID(2),=C'OX'  BAD
         BE    BADID
         CLC   ID(2),=C'RU'  REWIND AND UNLOAD
         BE    RU
         CLC   ID(2),=C'RW'  REWIND
         BE    RW
         CLC   ID(2),=C'SF'  SPACE FORWARD FILE
         BE    SF
         CLC   ID(2),=C'SR'  SKIP # OF RECORDS FORWARD
         BE    SR
         CLC   ID(2),=C'TC'  TAPE TO CARD
         BE    TC
         CLC   ID(2),=C'TD'  TAPE TO PRINT HEX
         BE    TD
         CLC   ID(2),=C'TM'  WRITE TAPE MARK
         BE    TM
         CLC   ID(2),=C'TP'  TAPE TO PRINT HEX
         BE    TP
         CLC   ID(2),=C'TT'  TAPE TO TAPE
         BE    TT
         CLC   ID(2),=C'WT'  WRITE TO TAPE MARK
         BE    WT
         CLC   ID(2),=C'WL'  WRITE A LABEL
         BE    WL                                            *BW 7/76*
*        CLC   ID(2),=C'XP'
*        BE    BADID
*        CLC   ID(2),=C'XR'
*        BE    BADID
*        CLC   ID(2),=C'XS'
*        BE    BADID
*        CLC   ID(2),=C'XA'
*        BE    BADID
*        CLC   ID(2),=C'XB'
*        BE    BADID
BADID    WTO   'DEBE: BAD ID - TRY AGAIN'
         B     ASKAGN
         SPACE 3
EOJ      EQU   *
         LA    11,INDCB                DCB ADDR                  DAL
         DEBCHK (11),TYPE=DELETE       DELETE DEB FROM DEB TABLE DAL
         LA    11,OUTDCB               DCB ADDR                  DAL
         DEBCHK (11),TYPE=DELETE       DELETE DEB FROM DEB TABLE DAL
         L     1,16          CVT
         L     1,0(,1)       TCB QUEUE
         L     1,4(,1)       TCB ADDR
         L     10,8(,1)      DEB QUEUE
         LA    10,0(,10)     CLEAR HIGH BYTE
STOREZER IC    10,8(,1)      SAVE BYTE OF TCB
         ST    11,8(,1)      PUT SYS DEB ADDR IN TCB
         STC   10,8(,1)      PUT BACK BYTE
         B     EOJA
CHKEND   L     1,4(,10)      NEXT DEB ON Q
         LA    1,0(,1)       CLEAR BYTE
         CR    1,11          OUR DEB YET
         BE    CHKDEBND      YES PROCESS
         L     10,4(,10)     NO ,GET NEXT DEB ON QUEUE
         B     CHKEND        NO LOOK AT NEXT DEB
CHKDEBND L     15,OUTDEB+4   ADDR OF OUR LAST DEBS NEXT POINTER
         LA    15,0(,15)     ZERO OUT BYTE
         IC    11,4(,10)     SAVE BYTE
         ST    15,4(,10)     STORE ADDR OF NEXT INTO LAST DEB
         STC   11,4(,10)     RESTORE BYTE
EOJA     EQU   *
         L     13,4(0,13)
         RETURN (14,12),RC=0
         EJECT
*
*  SUBPROGRAMS CALLED BY ID
*
*  BACKSPACE A FILE ON TAPE
         SPACE 1
BF       EQU   *
         BAL   10,TPOUTSET   DETERMINE WHICH TAPE UNIT AND SET UP
         MVC   OUTCCW+8(8),BFCCW   MOVE IN THE BF CCW
         B    SFEXCP
         SPACE 1
*  FORWARD SPACE A FILE ON TAPE
         SPACE 1
SF       EQU   *
         BAL   10,TPOUTSET   DETERMINE WHICH TAPE UNIT AND SET UP
         MVC   OUTCCW+8(8),SFCCW   MOVE IN SF CCW
SFEXCP   EQU   *
         BAL   11,MULTGET
SFLOOP   EQU   *
         BAL   11,IOOUT      GO EXECUTE THE CCW
         CLI   OUTECB,X'7F'  WAS EVERYTHING OK
         BNE   TAPERR
         BCT   10,SFLOOP          TRY AGAIN
         B     ASKAGN             ALL DONE
MULTGET  EQU   *
         ST    11,SV11            SAVE 11
         WTOR  'DEBE: NR FILES TO BE PROCESSED - XXXX',                +
               TDAREA,4,REPLYECB
         BAL   11,WAITANS
         OC    TDAREA(4),BLANKS
         CLC   TDAREA(2),=C'EJ'
         BE    ASKAGN             NEW ROUTINE
         OI    TDAREA+3,X'F0'
         PACK  TDWK,TDAREA(4)     PACK NUMBER
         CVB   10,TDWK            MAKE NUMBER BINARY
         L     11,SV11
         BR    11                 RETURN
         EJECT
*  BACKSPACE NNNN RECORDS ON TAPE
         SPACE 1
BS       EQU   *
         SPACE 1
*  SKIP NNNN RECORDS ON TAPE
         SPACE 1
SR       EQU   *
         BAL   10,TPOUTSET   DETERMINE WHICH TAPE UNIT AND SET UP
         WTOR  'DEBE: NR REC TO BE SKIPPED - XXXX',TDAREA,4,REPLYECB
         BAL   11,WAITANS    GO WAIT FOR A REPLY
         OC    TDAREA(2),BLANKS
         CLC   TDAREA(2),=C'EJ'  END THIS ROUTINE
         BE    ASKAGN        YES, EXIT THIS ROUTINE
         OI    TDAREA+3,X'F0'      MAKE A GOOD SIGN FOR CVB
         PACK  TDWK,TDAREA(4)
         CVB   2,TDWK        PUT NUMBER OF REC'S IN REG 2
         CLC   ID(2),=C'SR'
         BE    SREX
BSEX     MVC   OUTCCW+8(8),BSCCW   SET UP BS CCW
BSAGN    EQU   *
         BAL   11,IOOUT      EXECUTE THE CCW
         CLI   OUTECB,X'7F'  EVERYTHING OK
         BE    BCT6          YES, DO AGAIN TILL COUNT = 0
         B     TAPERR        NO, END THIS ROUTINE
BCT6     EQU   *
         BCT   2,BSAGN       DECREMENT THE COUNT AND DO AGAIN
         B     ASKAGN        ALL FINISHED WITH THIS ROUTINE
SREX     MVC   OUTCCW+8(8),SRCCW   SET UP SR CCW
         B     BSAGN
         EJECT
*  CARD TO CARD REPRODUCE
         SPACE 1
CC       EQU   *
         MVI   INMODSTK,X'41'      SET UP READER'S DCB
         MVI   INDEVT,X'43'
         MVC   D1(3),READER1       USE STANDARD ADDRESS
         BAL   14,UCBLOKUP
         ST    2,INDEBMOD    STORE UCB ADDRESS IN DEB
         MVI   OUTMDSTK,X'42'
         MVI   OUTDEVT,X'43'
         MVC   D1(3),PUNCH1        USE STANDARD ADDRESS
         BAL   14,UCBLOKUP
         ST    2,OUTDEBMD    STORE UCB ADDRESS IN DEB
         MVC   INCCW(8),CP1CCW     SET UP READ CCW
         MVC   OUTCCW(8),S2CCW
CCLOOP   EQU   *
         BAL   11,IOIN       READ A CARD
         CLI   INECB,X'7F'         EVERYTHING OK
         BE    CC1                 YES, BRANCH
         TM    INSTAT+4,X'01'    EOF
         BC    1,PCHDN
         B     RDRERROR      READER ERROR, END THIS ROUTINE
CC1      EQU   *
         BAL   11,IOOUT      PUNCH A CARD
         CLI   OUTECB,X'7F'        EVERYTHING OK
         BE    CCLOOP        YES, LOOP
*
PCHERROR WTO   'DEBE: PUNCH ERROR - EOJ'
PCHDN    EQU   *
         MVC   OUTCCW(8),ROCCW
         LA    11,ASKAGN
         B     IOOUT
         EJECT
*  CARD TO PRINTER - 80/80 LIST
         SPACE 1
CP       EQU   *
*  SET UP READER'S DCB AND DEB
         MVI   INMODSTK,X'41'
         MVI   INDEVT,X'43'
         MVC   D1(3),READER1       USE STANDARD ADDRESS
         BAL   14,UCBLOKUP
         ST    2,INDEBMOD          STORE UCB ADDRESS IN DEB
         BAL   11,OPENPRNT   OPEN SYSPRINT IF NOT OPEN
CP2      EQU   *
         BAL   11,SKIPTO1    SKIP TO CHANNEL 1
*  SET UP READER CCW
CPGO     MVC   INCCW(8),CP1CCW     SET UP READ CCW
CPLOOP   EQU   *
         BAL   11,IOIN       READ A CARD
         CLI   INECB,X'7F'   EVERYTHING OK
         BE    CP1           YES, BRANCH
         TM    INSTAT+4,X'01'      EOF?
         BC    1,TDEOJ
RDRERROR WTO   'DEBE: READER ERROR - EOJ'
         B     ASKAGN
CP1      EQU   *
         MVC   TDOUTAR(80),TDAREA      CLEAR UPPER PRINT LINE AFTER
         MVC   TDOUTAR+80(52),=CL52' ' MOVING DATA TO PRINT LINE
         BAL   11,TDPRINT    PRINT A CARD
         B     CPLOOP        LOOP
         EJECT
*  CARD TO TAPE
         SPACE 1
CT       EQU   *
*  SET UP READER'S DCB AND DEB
         MVI   INMODSTK,X'41'
         MVI   INDEVT,X'43'
         MVC   D1(3),READER1       USE STANDARD ADDRESS
         BAL   14,UCBLOKUP
         ST    2,INDEBMOD    STORE UCB ADDRESS IN DEB
         MVC   INCCW(8),CP1CCW     SET UP READ CCW
*  SET UP TAPE'S DCB AND DEB
         BAL   10,TPOUTSET   DETERMINE WHICH TAPE UNIT AND SET UP
         MVC   OUTCCW+8(8),CTCCW   SET UP WRITE CCW
         SR    2,2           CLEAR A COUNTER
CTLOOP   EQU   *
         BAL   11,IOIN       READ A CARD
         CLI   INECB,X'7F'         EVERYTHING OK
         BE    CT1           YES, BRANCH
         TM    INSTAT+4,X'01'      EOF
         BC    1,CTEOJ
         B     RDRERROR      READER ERROR, END THIS ROUTINE
CT1      EQU   *
         LA    2,1(2)        INCREMENT A COUNTER
         BAL   11,IOOUT      WRITE TO TAPE
         CLI   OUTECB,X'7F'        EVERYTHING OK
         BE    CTLOOP        YES, LOOP
         SPACE 1
*  IF OS CAN'T RECOVER FROM THE ERROR, I SURELY WON'T TRY
         B     TAPERR
CTEOJ    EQU   *
         BAL   11,WTM
         B     ASKAGN
         EJECT
* LIST TAPE (DEBLOCKED) ON PRINTER
         SPACE 1
DP       EQU   *
         BAL   11,OPENPRNT        OPEN PRINTER
         BAL   11,SKIPTO1         RESTORE CARRIAGE
         BAL   10,TAPINSET        GET A TAPE
         MVC   INCCW+8(8),TDINCCW
         BAL   11,TDPRINT         PRINT HEADER
         BAL   11,SPACE1
         WTOR  'DEBE: ENT LRECL - XXXX',TDAREA,4,REPLYECB
         BAL   11,WAITANS
         OC    TDAREA(4),BLANKS   SHIFT TO UPPER CASE
         CLC   TDAREA(2),=C'EJ'
         BE    ASKAGN
         OI    TDAREA+3,X'F0'     MAKE A BINARY NUMBER
         PACK  TDWK,TDAREA(4)
         CVB   4,TDWK
         BAL   10,TAPEBLOK
DPLOOP1  EQU   *
         SR    2,2
         BAL   11,IOIN            READ A TAPE RECORD
         CLI   INECB,X'7F'        OK?
         BE    DP1
         TM    INSTAT+4,X'01'     EOF?
         BC    1,TDEOJ
         B     TAPERROR
DP1      EQU   *
         LH    10,INSTAT+6        RES COUNT
         LH    3,TDINCCW+6        REQUESTED
         SR    3,10               GET LENGTH
DPLOOP2  EQU   *
         L     10,TAPEAREA    GET ADDRESS OF SP 0 WORK AREA
         AR    10,2
         MVC   TDOUTAR(132),BLANKS
         LR    5,4
         BCTR  5,0                DECREMENT GR5
         EX    5,DPMVC            *MVC TDOUTAR(L),0(10)
         BAL   11,TDPRINT         PRINT LINE
         AR    2,4                UP POINTER
         CR    2,3                DONE?
         BL    DPLOOP2
         TM    NBRSW,X'FF'
         BO    DPLOOP1
         BCT   6,DPLOOP1
         B     TDEOJ
DPMVC    MVC   TDOUTAR(0),0(10)
         EJECT
* BLOCK CARDIMAGE ON TAPE
         SPACE 1
BT       EQU   *
         MVI   INMODSTK,X'41'     PRIME CONTROL BLOCKS
         MVI   INDEVT,X'43'
         MVC   D1(3),READER1
         BAL   14,UCBLOKUP
         ST    2,INDEBMOD
         MVC   INCCW(8),CP1CCW
         BAL   10,TPOUTSET        GET OUTPUT TAPE
         MVC   OUTCCW+8(8),TTCCWOUT
         WTOR  'DEBE: ENT BLK FACTOR - XXXX',TDAREA,4,REPLYECB
         BAL   11,WAITANS
         OC    TDAREA(4),BLANKS
         CLC   TDAREA(2),=C'EJ'
         BE    ASKAGN
         OI    TDAREA+3,X'F0'
         PACK  TDWK,TDAREA(4)
         CVB   2,TDWK             PUT IN GR2
         MH    2,=H'80'
BTLOOP1  EQU   *
         SR    4,4
         LA    3,TDAREA
BTLOOP2  EQU   *
         ST    3,TDWK
         MVC   INCCW+1(3),TDWK+1
         BAL   11,IOIN            READ A CARD
         CLI   INECB,X'7F'        OPERATION OK?
         BE    BT1
         TM    INSTAT+4,X'01'     EOF?
         BC    1,BTEOJ
         B     RDRERROR
BT1      EQU   *
         LA    3,80(3)            MOVE POINTER
         LA    4,80(4)            INCR COUNTER
         CR    2,4
         BNE   BTLOOP2            TRY AGAIN
         STH   4,OUTCCW+14        COUNT FIELD
         BAL   11,IOOUT           WRITE TAPE
         CLI   OUTECB,X'7F'       OK?
         BNE   TAPERR
         B     BTLOOP1            PRAY WE GET OUT OF THIS LOOP!
BTEOJ    EQU   *
         LTR   4,4
         BZ    CTEOJ
         STH   4,OUTCCW+14
         BAL   11,IOOUT
         CLI   OUTECB,X'7F'       OPERATION OK?
         BNE   TAPERR
         B     CTEOJ              WRITE T/M
         EJECT
*  TAPE TO CARD, DEBLOCKING
         SPACE 1
TC       EQU   *
         BAL   10,TAPINSET         SET UP TAPE
         MVC   INCCW+8(8),TDINCCW  SET UP READ CCW
         MVI   OUTDEVT,X'43'
         MVI   OUTMDSTK,X'42'
         MVC   D1(3),PUNCH1
         BAL   14,UCBLOKUP
         ST    2,OUTDEBMD
         MVC   OUTCCW(8),DBCCW     PRIME CCW
DBLOOP1  EQU   *
         SR    2,2
         BAL   11,IOIN             READ A RECORD
         CLI   INECB,X'7F'         OK?
         BE    DB1                 YES, BRANCH
         TM    INSTAT+4,X'01'      EOF?
         BC    1,PCHDN
         B     TAPERROR
DB1      EQU   *
         LH    10,INSTAT+6         GET RES CNT
         LH    3,TDINCCW+6         GET START CNT
         SR    3,10                GET LENGTH
DBLOOP2  L     10,TAPEAREA    GET ADDRESS OF SP 0 WORK AREA
         AR    10,2
         MVC   TDAREA2(80),0(10)
         BAL   11,IOOUT            PUNCH CARD
         CLI   OUTECB,X'7F'        OK?
         BNE   PCHERROR            NO, BRANCH
         LA    2,80(2)             MOVE POINTER
         CR    2,3                 DONE?
         BL    DBLOOP2             NO, GO AGAIN
         B     DBLOOP1             NEXT RECORD
         EJECT
*  PRINT A TAPE
         SPACE 1
TP       EQU   *
*  TP USES THE TD ROUTINE WITHOUT THE HEX-TO-CHARACTER CONVERSION
         OI    TD3+1,X'F0'         SET SWITCHES IN TD
         OI    TD6+1,X'F0'
         SPACE 1
*  PRINT A TAPE IN HEX UNLESS SWITCHES SET BY TP
         SPACE 1
TD       EQU   *
         BAL   11,OPENPRNT   OPEN SYSPRINT IF NECESSARY
         BAL   11,SKIPTO1     SKIP TO CHANNEL 1
*  SET UP TAPE'S DCB AND DEB
         BAL   10,TAPINSET         DETERMINE WHICH TAPE UNIT AND SET UP
         MVC   INCCW+8(8),TDINCCW  SET UP READ CCW
         BAL   11,TDPRINT    PRINT THE HEADING LINE
         BAL   11,SPACE1      SPACE A LINE
         SP    RECCNT(3),RECCNT(3) CLEAR THE RECORD COUNTER
         BAL   10,TAPEBLOK
TDLOOP   EQU   *
         BAL   11,IOIN        READ A RECORD
         CLI   INECB,X'7F'         EVERYTHING OK
         BE    TD1           YES, BRANCH
         TM    INSTAT+4,X'01'      EOF
         BC    1,TDEOJ       YES, GO END ROUTINE
         SPACE 1
*  IF OS CAN'T RECOVER FROM THE ERROR, I SURELY WON'T TRY
         B     TAPERROR
TD1      LH    2,INSTAT+6          GET RESIDUAL COUNT
         LH    3,TDINCCW+6         GET BEGINING COUNT
         SR    3,2                 GET BYTES READ IN
         CVD   3,TDWK
         MVI   TDOUTAR,C' '        CLEAR PRINT LINE
         MVC   TDOUTAR+1(131),TDOUTAR
         MVC   TDOUTAR+102(23),RECHDG  SET UP LINE INFORMATION
         ED    TDOUTAR+119(6),TDWK+5
         AP    RECCNT(3),COND1(1)      INCREMENT RECORD COUNTER
         ED    TDOUTAR+105(6),RECCNT
*     GET READY FOR HEX CONVERSION
         L     2,TAPEAREA   GET ADDRESS OF SP 0 WORKAREA
         L     5,TAPEAREA   GET ADDRESS OF SP 0 WORKAREA
         LA    7,100
TD6      BC    0,TD7         SET TO BRANCH BY TP ROUTINE
*  R2 POINTS TO THE INPUT AREA
*  R5 POINTS TO THE OUTPUT AREA
         L     5,=A(TDAREA2)
         LA    7,50
         BAL   14,UNPK       GO CONVERT 50 BYTES TO 100 HEX
TD7      EQU   *
         CR    3,7           SHORT LINE TO BE PRINTED
         BL    TD3           YES, GO DO THE MOVE
         MVC   TDOUTAR(100),0(5)   ELSE DO 100 BYTE MOVE
TDPR     EQU   *
         BAL   11,TDPRINT     PRINT A LINE
         MVI   TDOUTAR,C' '        CLEAR OUTPUT AREA
         MVC   TDOUTAR+1(131),TDOUTAR
         SR    3,7           DECREMENT BLKSIZE
         BC    12,TD9         BRANCH IF BLOCK FINISHED
         AR    2,7            ELSE, INCREMENT COUNTERS
         AR    5,7
         B     TD6           AND LOOP
TD3      BC    0,TD4         SET TO BRANCH BY TP ROUTINE
         LR    11,3          GET REMAINDER OF DATA IN 11
         AR    11,3          DOUBLE IT BECAUSE IT'S UNPACKED
         BCTR  11,0          DECREMENT ONE FOR THE MOVE
         EX    11,MVCOML
         B     TDPR          GO PRINT SHORT LINE
TD4      EQU   *
         BCTR  3,0
         EX    3,MVCOML
         B     TDPR           GO PRINT SHORT LINE
MVCOML   MVC   TDOUTAR(0),0(5)        COMMON MOVE INSTRUCTION
UNPK     EQU   *             CONVERT 50 BYTES TO 100 BYTES HEX
         UNPK  0(15,5),0(8,2)
         UNPK  14(15,5),7(8,2)
         UNPK  28(15,5),14(8,2)
         UNPK  42(15,5),21(8,2)
         UNPK  56(15,5),28(8,2)
         UNPK  70(15,5),35(8,2)
         UNPK  84(15,5),42(8,2)
         UNPK  98(3,5),49(2,2)
         TR    0(100,5),TDPTABLE-240
         BR    14
TD9      EQU   *
         BAL   11,SPACE1     SPACE A LINE AFTER WHOLE BLOCKED
         TM    NBRSW,X'FF'
         BO    TDLOOP
         BCT   6,TDLOOP
         MVC   INCCW+8(8),TDINCCW  SET UP READ CCW
         BAL   10,TAPEBLOK
         BAL   11,MULTGET         GET FACTOR
TTLOOP   EQU   *
         BAL   11,IOIN        READ A BLOCK
         CLI   INECB,X'7F'
         BE    TT1           EVERYTHING OK, BRANCH
         TM    INSTAT+4,X'01'
         BC    1,TTEST
         SPACE 1
*  IF OS CAN'T RECOVER FROM THE ERROR, I SURELY WON'T TRY
TAPERROR EQU   *
         WTO   'DEBE: INPUT TAPE ERROR - EOJ'
         B     ASKAGN
TT1      LH    2,INSTAT+6          GET RESIDUAL COUNT
         LH    3,TDINCCW+6         GET BEGINNING COUNT
         SR    3,2           COMPUTE BYTES READ IN
         STH   3,TTCCWOUT+6        SET UP WRITE CCW
         MVC   OUTCCW+8(8),TTCCWOUT
         BAL   11,IOOUT      WRITE A BLOCK
         CLI   OUTECB,X'7F'        EVERYTHING OK
         BNE   TTERR
         TM    NBRSW,X'FF'
         BO    TTLOOP
         BCT   6,TTLOOP
         B     ASKAGN
TTERR    EQU   *
         SPACE 1
*  IF OS CAN'T RECOVER FROM THE ERROR, I SURELY WON'T TRY
TAPERR   EQU   *
         WTO   'DEBE: OUTPUT TAPE ERROR - EOJ'