         MACRO
&NAME    QSTART &TITLE,&MAIN=NO,&TYPE=NORMAL
&NAME    START 0
***********************************************************************
*                                                                     *
*   REGISTER USAGE TABLE                                              *
*                                                                     *
***********************************************************************
R0       EQU   0              TEMP WORK
R1       EQU   1              TEMP WORK
R2       EQU   2              WORK REG
R3       EQU   3              WORK REG
R4       EQU   4              WORK REG
R5       EQU   5              WORK REG
R6       EQU   6              WORK REG
R7       EQU   7              WORK REG
R8       EQU   8              WORK REG
R9       EQU   9              ADDRESS OF COMMON SUB-AREA
R10      EQU   10             ADDRESS OF COMMON SUB-AREA
R11      EQU   11             ADDRESS OF COMMON VECTOR TABLE
R12      EQU   12             BASE REGISTER
R13      EQU   13             SAVE AREA AND TEMPORARY WORK AREA
R14      EQU   14             TEMP WORK
R15      EQU   15             TEMP WORK
***********************************************************************
*                                                                     *
*   GLOBAL FLAG DEFINITIONS                                           *
*                                                                     *
***********************************************************************
         GBLB  &QPFK          PF-KEY OPTION (SEE Q5 AND Q8)
&QPFK    SETB  1
*  QPFK=0 SELECTS NO PF-KEY SUPPORT
*  QPFK=1 SELECTS PF=KEY SUPPORT
         GBLB  &QACF2         ACF2 AUTH CHECKING (SEE Q6 AND Q14)  FCI*
&QACF2   SETB  0                                                   FCI*
* QACF2=0 SELECTS NO ACF2 CHECKING (SHOPS WITHOUT ACF2)            FCI*
* QACF2=1 SELECTS ACF2 AUTH TO SYSOUT VIA DSN='SYSOUT.LID.JOBNAME' FCI*
*         SEE Q6 (FINDJOB) FOR ACF2 AUTH CHECKING                  FCI*
***********************************************************************
 MNOTE *,'QPFK=&QPFK, QACF2=&QACF2 '                           PWF FCI*
***********************************************************************
*                                                                     *
*   THE QUEUE COMMAND WAS WRITTEN FOR YOUR AMUSEMENT AND AMAZEMENT BY *
*     THE INTERGALACTIC MESSIANIC INDIVIDUAL GROUP THERAPY DIVISION   *
*     OF TRW SYSTEMS, 1 SPACE PARK, REDONDO BEACH, CA. 90278          *
*   THE ORIGINAL PROGRAMMING WAS DONE BY ANDY ZIDE, CHIEF PROGRAMMER  *
*     AND RESIDENT FLAKE WHO HAS SINCE DEPARTED TRW TO PLAY WITH      *
*     MICROCODE.                                                      *
*   PLEASE ADDRESS ANY COMMENTS, SUGGESTIONS, COMPLAINTS, OR THREATS  *
*     TO STEVE ANDERSON (R3/1028)   (213) 535-0682   OR               *
*        PAUL FELIX     (R3/1028)   (213) 535-0682                    *
***********************************************************************
*                                                                     *
*   THE FOLLOWING INDIVIDUALS HAVE MADE MODIFICATIONS TO QUEUE WHICH  *
*     HAVE BEEN INCORPORATED INTO THIS CURRENT VERSION.               *
*                                                                     *
*        VILKO MACEK                                                  *
*        INSURANCE CORPORATION OF BRITISH COLUMBIA                    *
*        MODIFICATION: PFK SUPPORT                                    *
*                                                                     *
*        TRW ISD                                                      *
*        ANAHEIM, CALIFORNIA                                          *
*        MODIFICATION: DISPLAY CPU TIME FOR BATCH, STC AND TSO        *
*                      DISPLAY INITIATORS                             *
*                                                                     *
*        KEN TRUE                                                     *
*        FAIRCHILD CAMERA AND INSTRUMENT                              *
*        MOUNTAIN VIEW, CALIFORNIA                                    *
*        MODIFICATION: ACF2 SUPPORT                                   *
*                      PRINT SCREEN SUPPORT                           *
*                                                                     *
*        JACK SCHUDEL                                                 *
*        NORTHEAST REGIONAL DATA CENTER                               *
*        233 SSRB, UNIVERSITY OF FLORIDA                              *
*        GAINESVILLE, FLORIDA  32611                                  *
*        (904) 392-4601                                               *
*        MODIFICATION: NJE SUPPORT                                UF001
*                      ALLOW QCOMMON TO BE LINKED IN FOR TESTING. UF002
*                      SUPPORT FOR 3278 MODELS 2, 4, & 5.         UF003
*                      TITLE CARD FOR Q0 (QCOMMON).               UF004
*                      NO AUTH CHECKING IF QXAUTH=1.              UF005
*                      ONLY READ CKPT FROM STATUS AND FINDJOB.    UF006
*                      "L * PN" USES CURRENT JOBNAME. (NO CKPT RD)UF007
*                      HAVE FINDPDDB START @ 1ST IOT IF NOT FOUND.UF008
*                                                                     *
***********************************************************************
*
         AIF   ('&TYPE' EQ 'NORMAL').GO
         MEXIT
.GO      ANOP
&NAME    TITLE &TITLE
         USING *,R12          BASE REGISTER
         USING QCOMMON,R11    ACCESS TO COMMON VECTOR TABLE
         STM   R14,R12,12(R13) STANDARD REGISTER SAVE
         LR    R12,R15        LOAD BASE REG
         B     *+28           BRANCH AROUND IDENTIFIER
         DC    CL8'&NAME'     MODULE IDENTIFIER
         DC    CL8'&SYSDATE'  ASSEMBLY DATE
         DC    CL8' &SYSTIME'  ASSEMBLY TIME
         AIF   ('&MAIN' EQ 'YES').MAINYES
         LR    R15,R13        RETAIN SAVE AREA ADDR
         LA    R13,72(R13)    POINT TO NEXT SAVE AREA
         AGO   .MAINNO
.MAINYES ANOP
         LR    R2,R1          SAVE PARAMETER REGISTER
         GETMAIN R,LV=1024    GET STORAGE FOR SAVEAREA
         ST    R1,8(R13)      FORWARD POINTER
         ST    R13,4(R1)      BACKWARD POINTER
         LR    R13,R1         MOVE ADDR TO R1
         MEXIT
.MAINNO  ANOP
         ST    R13,8(R15)     FORWARD POINTER
         ST    R15,4(R13)     BACKWARD POINTER
         MEND
