         MACRO
&NAME    RTURN &SA,&RC=O
         GBLC  &SAVENAM
         LCLC  &SWORK
         AIF   ('&SA' EQ '').AA
&SWORK   SETC  '&SA'
         AGO   .BB
.AA      ANOP
&SWORK   SETC  '&SAVENAM'
.BB      ANOP
         AIF   ('&SWORK' NE '').CC
         MNOTE 12,'*** DEFINITION ERROR - SAVE AREA NAME NOT SPECIFIED'
         MEXIT
.CC      ANOP
&NAME    L     13,&SWORK+4
         LM    14,12,12(13)
         AIF   ('&RC' EQ 'O').DD
         LA    15,&RC.(0,0)
.DD      ANOP
         BR    14
         MEND
