VTOC     TITLE 'TSO VTOC SCAN ROUTINE'
         MACRO
&NAME    SCREEN &TYPE
         AIF   ('&TYPE' EQ 'POSITION').POS
         AIF   ('&TYPE' EQ 'CLEAR').CLEAR
         MNOTE 8,'*** &TYPE IS NOT VALID CONTROL TYPE'
         MEXIT
.POS     ANOP
&NAME    LA    1,1
         AGO   .SVC
.CLEAR   ANOP
&NAME    SR    1,1
.SVC     LA    0,2
         SLL   0,24
         SVC   94
         MEND
         MACRO
&NAME    MSG   &A,&B,&TYPE
         LCLC  &L
&L       SETC  'L'''
         AIF   ('&A'(1,1) EQ '(').MSG001
&NAME    LA    R1,&A          GET ADDRESS OF MESSAGE
         AGO   .MSG002
.MSG001  ANOP
&NAME    LR    R1,&A(1)       GET ADDRESS OF MESSAGE
.MSG002  ANOP
         AIF   ('&B' EQ '').MSG003
         AIF   ('&B'(1,1) EQ '(').MSG004
         LA    R0,&B          GET LENGTH OF MESSAGE
         AGO   .MSG005
.MSG003  ANOP
         LA    R0,&L.&A       GET LENGTH OF MESSAGE
         AGO   .MSG005
.MSG004  ANOP
         LR    R0,&B(1)       GET LENGTH OF MESSAGE
.MSG005  ANOP
         AIF   ('&TYPE' EQ 'PUT').MSG006
         BAL   R7,GET         GO TO GET ROUTINE
         MEXIT
.MSG006  BAL   R7,PUT         GO TO PUT ROUTINE
         MEND
         MACRO
&L       OPT   &TEXT
         LCLA  &CNT
         AIF   (T'&TEXT EQ 'O').ENDOPT
&CNT     SETA  K'&TEXT-2
&L       DC    AL1(&CNT),C&TEXT
         MEXIT
.ENDOPT  ANOP
&L       DC    X'FF'
         MEND
         EJECT
VTOC     RSAVE
         LA    R3,4095(R12)   SETUP SECOND BASE
         LA    R3,1(R3)
         USING VTOC+4102,R3   TELL ASSEMBER
         LA    R9,4095(R3)    SETUP THIRD BASE
         LA    R9,1(R9)
         USING VTOC+8198,R9   TELL ASSEMBLER
         ST    R1,CPPL        SAVE CPPL ADDRESS
         MVI   FLGS,DUMMY     SET FLAGS TO ALLOCATE A DUMMY DD
         LINK  EP=IKJDAIR,PARAM=(FLGS,CPPL,DDNAME)
         LTR   R15,R15        DID WE ALLOCATE IT O.K.
         BZ    BEGIN          YES - GO BEGIN VTOC SCAN
         CH    R15,H4         IF RC=4 THEN DD ALREADY ALLOCATED
         BNE   RTURN          NO - THEN JUST RETURN
BEGIN    DS    0H
         EXTRACT PSCB,'S',FIELDS=PSB  GET PSCB CONTROL BLOCK
         MVI   FLGS,255       SET FLGS THAT HAVE A DD ALLOCATED
         LA    R1,VTCREAD     GET ADDRESS OF VTOC READ SUBROUTINE
         ST    R1,VTOCREAD    SAVE IT
         SCREEN CLEAR         CLEAR SCREEN
         MSG   LEVEL,,PUT     PUT OUT MESSAGE
         STAX  PRESTART,REPLACE=YES  SETUP STAX INTERUPT
         B     LOPT1          GO LIST OPTIONS AND BEGIN
PRESTART DS    0H
         USING *,R15                                          ***WBF***
         MVI   SW,255         SET INTERUPT FLAG WITH X'FF'
         BR    R14            RETURN ON REG 14
         DROP  R15                                            ***WBF***
SW       DC    X'00'          FLAG SETTING FOR INTERUPT
         EJECT
VTOC001  DS    0H
         XC    ENDSW(6),ENDSW    CLEAR SWITCHES
         MVI   SW,X'00'          MAKE SURE INTERUPT SWITCH IS CLEAN
         XC    TSOTOT,TSOTOT
         MVI   ANS,C'0'
         MVC   CNTR1,=PL3'0'
         MVC   DSNAME(44),BLANKS
         MVC   SERIAL(6),BLANKS
         LA    R10,0
         MVC   ASW,ASWCLR     CLEAR ANSWER AREA
         MSG   MESS,,PUT      ISSUE MAIN MESSAGE
         MSG   ASW,,GET       WHAT DOES USER WANT TO DO
         CLI   SW,X'00'       ATTENTION ON READ?      WBF 8/4/78
         BNE   RTURN          YES - RETURN TO O/S     WBF 8/4/78
         OI    ASW,C' '       FORCE UPPER CASE        WBF 04/09/79
         CLI   ASW,C'X'       X-TYPE TSO COMMAND?
         BNE   VTOC001A       NO
         MVI   XCMD,C' '      CLEAR XCMD
         MVC   XCMD+1(L'XCMD-1),XCMD
         MVC   XCMD(L'ASW),ASW  PUT COMMAND INTO BUFFER
         BAL   R7,XCMDGO        ISSUE COMMAND
         B     VTOC001
VTOC001A CLI   ASW,C'E'       'END' - THEN GO END
         BE    RTURN          RETURN TO O/S
         CLI   ASW,C'L'       'LIST' - GO LIST IT
         BE    SCANER
         CLI   ASW,C' '       BLANK  - GO LIST IT
         BE    SCANER
         CLI   ASW,C'S'       'SCRATCH' - IF SO THEN SET FLAG
         BNE   LOPT1          NO THEN GO ISSUE OPTION LIST
         MVI   DELSW,255      SET FLAG
SCANER   EQU   *
         MSG   MESS1,,PUT
         MSG   VOLSER,,GET
         CLI   SW,X'00'       DID USER INTERRUPT US?
         BNE   VTOC001        YES
         CLI   VOLSER,C' '    NO
         BE    RTURN
WTOR2    EQU   *
         MSG   MESS2,,PUT
         MSG   NAME,,GET
         CLI   SW,X'00'       DID USER INTERRUPT US?
         BNE   VTOC001        YES
         SCREEN CLEAR         NO
         EJECT
*------ATTEMPT TO ALLOCATE UNIT
PKCHK    MVC   PACK(6),VOLSER
*        ALLOCATE (ALLOC),DDNAME=DDNAME,VOLSER=VOLSER
         MVC   S99TUPL(4),ADDRALOC               ++++ DMA 07-28-76 ++++
         MVI   S99RB+1,ALLOC                     ++++ DMA 07-28-76 ++++
         MVC   ALOCNAME(6),VOLSER                ++++ DMA 07-28-76 ++++
         LA    R1,S99RBPTR                       ++++ DMA 07-28-76 ++++
         DYNALLOC                                ++++ DMA 07-28-76 ++++
         LOCUCB VOLUME=VOLSER,NOFIND=BADUCB  A.S.T. UCB LOOKUP
         LR    R1,R15  LOAD IT TO 1                   ADDED BY B.A. RNB
         B     GOTIT
BADUCB   LA    R15,4095 SHOW BAD UCB FOR VOL SER      ADDED BY B.A. RNB
         SPACE 2
*------THE FOLLOWING CODE PUTS OUT THE RETURN CODE FOR
*------THE VOLUME WE ARE UNABLE TO ALLOCATE THEN GOES BACK
*------TO START
         CVD   R15,DBLWD
         OI    DBLWD+7,X'0F'
         UNPK  WORK1(3),DBLWD+6(2)
         MVC   LINE+30(15),=C'UNABLE TO LIST '
         MVC   LINE+45(6),VOLSER
         MVC   LINE+56(12),=C'RETURN CODE '
         MVC   LINE+68(2),WORK1+1
         MSG   LINE,,PUT
         B     VTOC001
         SPACE 2
GOTIT    STH   R1,UCB         STORE OFF UCB ADDRESS
         LH    R8,UCB         GET UCB ADDRESS
         LA    R8,18(R8)      GET DEVICE TYPE ADDRESS
         BAL   R14,DEVTYPE    GO MAKE SURE IT VALID DASD TYPE
READERX  CLI   NAME,C' '      DID USER ENTER A LEVEL
         BE    FULL           NO - THEN DO A FULL SCAN
         LA    R8,NAME        YES - THEN DETERMINE LENGTH OF LEVEL
LENLOOP  CLI   0(R8),C' '     ARE WE AT END
         BE    LENSET         YES - GO FIGURE LENGTH
         LA    R8,1(R8)       UP POINTER
         B     LENLOOP        LOOP BACK
LENSET   LA    R1,NAME        GET START OF LEVEL
         SR    R8,R1          GET LENGTH IN REG 8
         MVC   DSNAME(44),NAME SAVE LEVEL IN DSNAME
         BCTR  R8,0           MINUS ONE FOR EX INST.
         B     OPENIT         GO OPEN VTOC
FULL     MVI   FULLSW,255     SET FULL SWITCH ON
         B     OPENIT         GO OPEN VTOC
         EJECT
*------OPEN VTOC
OPENIT   DS    0H
         LA    R1,1           TELL ROUTINE TO OPEN DATASET
         ST    R1,VTOCTYPE    SAVE IT IN LIST
         LA    R1,VOLSER      GET ADDRESS OF VOLSER
         ST    R1,VTOCVOL     SAVE IT IN LIST
         LA    R1,VTOCLIST    GET ADDRESS OF LIST
         L     R15,VTOCREAD   GET ADDRESS OF ROUTINE
         BALR  R14,R15        GO TO IT
         L     R1,VTOCRC      GET RETURN CODE
         LTR   R1,R1          TEST FOR ZERO
         BNZ   OPENFAIL       NO - GO TELL USER
*------READ A RECORD
GETDCB   DS    0H
         XC    VTOCTYPE,VTOCTYPE TELL ROUTINE TO READ A RECORD
         LA    R1,VTOCLIST    GET ADDRESS OF LIST
         L     R15,VTOCREAD   GET ADDRESS OF ROUTINE
         BALR  R14,R15        GO TO IT
         L     R1,VTOCRC      GET RETURN CODE
         LTR   R1,R1          TEST FOR ZERO
         BNZ   GETFAIL        NO - GO CHECK FAIL
         L     R1,VTOCDSB     GET ADDRESS OF DSCB
         MVC   DSCB(140),8(R1) MOVE IT INTO MY AREA
         B     CHECKIT        GO CHECK IT
CLSEIT   DS    0H
         ST    R14,SAV14      SAVE CALLERS RETURN ADDRESS
         LA    R1,2           TELL ROUTINE TO CLOSE DATASET
         ST    R1,VTOCTYPE    SAVE IT IN LIST
         LA    R1,VTOCLIST    GET ADDRESS OF LIST
         L     R15,VTOCREAD   GET ADDRESS OF ROUTINE
         BALR  R14,R15        GO TO IT
         L     R14,SAV14      GET RETURN ADDRESS
         BR    R14            GO BACK TO CALLER
         EJECT
*----- DETERMINE IF DSCB IS VALID AND IF IT MATCHES LEVEL
CHECKIT  DS    0H
         CLI   SW,0
         BE    VTOC1001
         BAL   R14,CLSEIT
         B     SHORTEND
VTOC1001 CLI   DSCB+44,X'00'
         BNE   F1TST
         AP    CNTR1,=PL3'1'
F1TST    CLI   DSCB+44,X'F1'
         BE    SAVVOL
         CLI   DSCB+44,X'F4'
         BNE   GETDCB
         MVC   DSCB(44),=CL44'*VTOC'
*
SAVVOL   MVC   SERIAL,PACK
         CLI   FULLSW,X'FF'
         BE    FMT3TST
         LA    R5,DSNAME
         CLC   0(3,R5),=C'TSO#'
         BE    FMT3TST
TSTCMP   EX    R8,COMPARE
         BNE   GETDCB
FMT3TST  CLC   FMTCHH(5),=XL5'00'                      WBF 7/27/78
         BE    VTALL
         CLI   DSCB+82,X'80'     ISAM DATASET?         WBF 7/27/78
         BNE   FMT3GET           NO - GO GET FMT3      WBF 7/27/78
         OBTAIN DSCB3            YES - GET FMT2        WBF 7/27/78
         LTR   R15,R15           FMT2 RETRIEVED OK?    WBF 7/27/78
         BNZ   DSNBAD            NO - ERROR            WBF 7/27/78
         CLC   FMTXWK+135(5),=XL5'00'  FMT3 NEEDED?    WBF 7/27/78
         BE    VTALL             NO - GO PROCESS FMT1  WBF 7/27/78
         MVC   FMTCHH(5),FMTXWK+135  YES - GET CCHHR   WBF 7/27/78
FMT3GET  OBTAIN DSCB3                                  WBF 7/27/78
         LTR   R15,R15
         BNZ   DSNBAD
         EJECT
*------GET TRACK ALLOCATION
VTALL    XR    R2,R2          CLEAR REG 2
         XR    R6,R6          CLEAR REG 6
         XR    R11,R11        CLEAR REG 11
         IC    R2,DSCB+59     LOAD # OF EXTENT
         LTR   R2,R2          TEST # OF EXTENT
         BZ    DSREC          NONE - GET DCB
DSTTRK   L     R5,DSADD(R6)
         CLI   0(R5),X'00'
         BE    DSATX
         LA    R5,2(R5)            ADD 1ST TRK
         SR    R0,R0                 CLEAR REG 0
         LR    R1,R0                 CLEAR REG 1
         LH    R0,4(R5)            LAST CYL NUM
         LH    R1,0(R5)            1ST  CYL NUM
         SR    R0,R1                 SUB 1ST FROM END
         MH    R0,TRPRCY           X BY TRKS PER CY
         LH    R1,6(R5)            LAST TRK
         AR    R0,R1                 ADD TRK CNT
         LH    R1,2(R5)            STARTING TRK
         SR    R0,R1                 SUB FROM TRK CNT
         AR    R11,R0                 ACCUMULATE TOTAL
         LA    R11,R1(R11)           ADD 1 TRK
         LA    R6,4(R6)
         BCT   R2,DSTTRK     DECEEMENT EXTENT CNT
DSATX    ST    R11,TRACKS     STORE TRK ALLOCATED
         L     R2,TSOTOT
         AR    R2,R11
         ST    R2,TSOTOT
         LA    R6,4
         LA    R2,TRACKS
         BAL   R14,DSCNVT    CONVERT ALLOC TO EBCDIC
         MVC   DSALL(5),DBLWD+27                    WBF 8/11/78
*------GET TRACKS USED
         CLC   DSCB+98(3),=X'000000'
         BE    DSATX1
         LH    R1,DSCB+98
         LA    R1,1(R1)
         ST    R1,TRACKS
         LA    R6,4
         LA    R2,TRACKS
         BAL   R14,DSCNVT
         MVC   DSUSE(5),DBLWD+27                    WBF 8/11/78
*------GET NUMBER OF EXTENTS
DSATX1   LA    R2,DSCB+59
         LA    R6,1
         BAL   R14,DSCNVT
         MVC   DSEXT(2),DBLWD+30
         EJECT
*------GET CREATION DATE
         L     R1,DSCB+52
         LA    R1,0(R1)
*------TEST FOR LEAP YEAR
         ST    R1,DATEWORK
         LH    R1,DATEWORK+2         LOAD DAY OF YEAR
         TM    DATEWORK+1,X'03'  TEST FOR X OF 4
         BZ    DATMOD
*------NOT A LEAP YEAR
         C     R1,=F'60'
         BL    DATMOD
         LA    R1,1(R1)
*------CONVERT DAY OF YEAR TO MONTH AND DAY
DATMOD   SR    R2,R2                 MONTH COUNTER
DATECT   SH    R1,DATMNT(2)
         LTR   R1,R1
         BNP   DATCT2
         LA    R2,2(R2)            NEXT MONTH
         B     DATECT
*------ADD BACK NUMBER OF DAYS AND   BY2
DATCT2   AH    R1,DATMNT(R2)
         SRA   R2,1
         LA    R2,1(R2)
         SR    R6,R6
         IC    R6,DATEWORK+1
*------REG1 = DAY
*------REG2 = MONTH
*------REG3 = YEAR
         CVD   R2,DBLWD
         OI    DBLWD+7,X'0F'
         UNPK  WORK1(3),DBLWD+6(2)
         MVC   DSDATE(2),WORK1+1
         MVI   DSDATE+2,C'/'
         CVD   R1,DBLWD
         OI    DBLWD+7,X'0F'
         UNPK  WORK1(3),DBLWD+6(2)
         MVC   DSDATE+3(2),WORK1+1
         MVI   DSDATE+5,C'/'
         CVD   R6,DBLWD
         OI    DBLWD+7,X'0F'
         UNPK  WORK1(3),DBLWD+6(2)
         MVC   DSDATE+6(2),WORK1+1
         EJECT
*------GET RECORD FORMAT
DSREC    LA    R1,RECFMTBL    GET ADDRESS OF RECFM TABLE
         XR    R2,R2          CLEAR REG 2
         LA    R14,DSRCFM     GET ADDRESS OF DATALINE
RECTM    TM    DSCB+84,X'00'  TEST WHICH BIT IS ON
         IC    R2,0(R1)       GET BIT(S) TO TEST
         EX    R2,RECTM       NOW TEST IF IT IS ONE OF THE BIT(S) ON
         BO    RECSET         IF ON GO MOVE IN VALUE
RECUP    LA    R1,2(R1)       UP TABLE POINTER
         CLI   0(R1),0        ARE WE AT END OF TABLE
         BE    RECEND         YES - GO END LOOKUP
         B     RECTM          LOOP BACK
RECSET   MVC   0(1,R14),1(R1) MOVE IN VALUE
         LA    R14,1(R14)     UP POINTER
         CLI   1(R1),C'U'     TEST TO SEE IF RECFM IS 'U'
         BNE   RECUP          NO  - UP POINTER
         LA    R1,6(R1)       YES - BYPASS NEXT 2 ENTRIES
         B     RECTM          LOOP BACK
RECEND   EQU   *
*------GET ALLOCATION TYPE
         LA    R1,CALOTBL     GET ADDRESS OF TABLE TYPE
         XR    R2,R2          CLEAR REG 2
CALOTM   TM    DSCB+94,X'00'  TEST IF BITS ON
         IC    R2,0(R1)       GET BIT(S) TO TEST
         EX    R2,CALOTM      NOW TEST TO SEE IF ITS ON
         BO    CALOSET        YES - GO PUT OUT VALUE
         LA    R1,2(R1)       NO  - UP TABLE
         CLI   0(R1),0        ARE WE AT END OF TABLE
         BNE   CALOTM         NO -  GO LOOP BACK
CALOSET  MVC   DSCALO(1),1(R1)
*------GET BLOCKSIZE
DSBLKX   LA    R6,R2
         LA    R2,DSCB+86
         BAL   R14,DSCNVT
         MVC   DSBLK(5),DBLWD+27
*------GET LRECL
         LA    R6,R2
         LA    R2,DSCB+88
         BAL   R14,DSCNVT
         MVC   DSLRL(5),DBLWD+27
*-----GET DSORG
         LA    R1,ORGTBL      GET ADDRESS OF ORG TABLE
         CLC   DSCB+82(2),=X'0008'  VSAM DSORG?        WBF 8/3/78
         BNE   ORGLOOP              BIF NOT            WBF 8/3/78
         MVI   DSCB+82,X'08'        ELSE RESET DSORG   WBF 8/3/78
*                                   TO CHECKABLE VALUE WBF 8/3/78
ORGLOOP  CLC   DSCB+82(1),0(R1) IS THIS A MATCH
         BE    ORGTYPE        YES - THEN MOVE IN TYPE
         LA    R1,4(R1)       UP TABLE POINTER
         CLI   0(R1),X'00'    IS THIS THE END OF THE TABLE
         BNE   ORGLOOP        NO  - THEN GO LOOP BACK
ORGTYPE  MVC   DSORG(3),1(R1) MOVE IN TYPE
*------DETERMINE IF PSWD IS ON
         L     R1,PSCB        GET PSCB ADDRESS
         CLC   0(3,R1),=C'TEC' IS USER FROM TECH STAFF?     ***WBF***
         BE    CHKPSWD        YES - CHECK FOR PSWD PROT     ***WBF***
         CLC   0(3,R1),=C'SEC' IS USER FROM DATA SECURITY?  ***WBF***
         BNE   SETSCR          NO - DON'T SHOW PSWD INFO    ***WBF***
CHKPSWD  TM    DSCB+93,PSWD   IS PASSWORD BIT ON
         BNO   CHKRACF        NO                            ***WBF***
         MVI   DSPSWD,C'*'    SET FLAG FOR PASSWORD
CHKRACF  TM    DSCB+93,RACF   IS RACF BIT ON?               ***WBF***
         BNO   SETSCR         NO                            ***WBF***
         MVI   DSPSWD,C'@'    SET FLAG FOR RACF             ***WBF***
         EJECT
*------SET UP SCREEN FOR DISPLAY
SETSCR   CLC   DSNAME(3),=C'TSO#'
         BE    GETDCB
         CLI   HDERSW,X'FF'         HEADER DONE ?
         BC    7,HDER             YES BUILD LNE
         C     R10,=F'22'
         BC    4,LNEUP
HDER     MVC   LINE(78),VTHDER     MOVE HEADER IN
         MSG   LINE,,PUT
         MVI   HDERSW,X'FF'         ONLY 1 HEADER
         LA    R10,0
LNEUP    LA    R10,1(R10)
         CLI   DSCB+25,C' '         NORMAL DSN
         BC    7,TWOLNE            YES
         MVC   LINE(78),LNE        MOVE IN LINE
         MVC   LNE(78),BLANKS CLEAR LNE
         MVC   LINE(25),DSCB        MOVE DSN IN
         MSG   LINE,,PUT
         CLI   DELSW,X'FF'
         BNE   GETDCB
         BAL   R14,DEL
         B     GETDCB                NO - GET NEXT LN
TWOLNE   MVC   LINE(78),BLANKS    CLEAR LINE
         MVC   LINE(44),DSCB
         LA    R10,1(10)
         MSG   LINE,,PUT
         MVC   LINE(78),LNE
         MVC   LNE(78),BLANKS CLEAR LNE
         MSG   LINE,,PUT
         CLI   DELSW,X'FF'
         BNE   GETDCB
         BAL   R14,DEL
         B     GETDCB                NO - GET LINE
         EJECT
CLOSER   DS    0H
         CLC   DSNAME(4),=C'TSO#'
         BNE   SPACE
         SCREEN CLEAR
SPACE    LH    R0,UCB
         LA    R1,SPCEWK
         SVC   78
         MVC   VOLMSG1+15(6),VOLSER        DISPLAY VOL SER
         MSG   VOLMSG1,,PUT
         MVC   LINE(78),BLANKS
         MVC   LINE+2(21),SPHD1
         MVC   LINE+31(24),SPHD2
         MVC   LINE+60(15),SPHD3
         MSG   LINE,,PUT
         MVC   LINE(78),BLANKS
         MVC   LINE+3(15),SPCEFILL
         MVC   LINE+32(15),SPCEFILL
         MVC   LNETCYL(4),TOTCYL
         MVC   LNETTRK(4),TOTTRK
         MVC   LNECCYL(4),CONCYL
         MVC   LNECTRK(4),CONTRK
         UNPK  LNEDSCB(4),CNTR1                    +++ DMA 02-03-77 +++
         OI    LNEDSCB+3,X'F0'                     +++ DMA 02-03-77 +++
         MSG   LINE,,PUT
         EJECT
         CLC   DSNAME(3),=C'TSO#'
         BNE   SHORTEND
         LA    R2,TSOTOT
         LA    R6,4
         BAL   R14,DSCNVT
         MVC   LINE(78),BLANKS
         MVC   LINE+10(25),TOTHEAD1
         MVC   LINE+35(5),DBLWD+27
         PACK  WORKA,TOTCYL
         MP    WORKA,TRPRCYP+5(3)                      WBF 7/21/78
         PACK  WORKB,TOTTRK
         AP    WORKA,WORKB
         XC    DBLWD,DBLWD
         MVC   DBLWD+3(5),WORKA
         CVB   R2,DBLWD
         ST    R2,REGST
         LA    R2,REGST
         LA    R6,4
         BAL   R14,DSCNVT
         MVC   LINE+45(20),=C'TOTAL FREE TRACKS = '
         MVC   LINE+65(5),DBLWD+27
         MSG   LINE,,PUT
         L     R1,REGST
         L     R2,TSOTOT
         AR    R1,R2
         ST    R1,REGST
         LA    R2,REGST
         LA    R6,4
         BAL   R14,DSCNVT
         MVC   LINE(78),BLANKS
         MVC   LINE+10(34),=C'TOTAL TRACKS ALLOCATED AND FREE = '
         MVC   LINE+44(5),DBLWD+27
         MSG   LINE,,PUT
         LH    R1,UCB               GET UCB        +++ DMA 02-03-77 +++
         MVC   MAXTRKS,=F'7675'     SET 3330 TRACKS+++ DMA 02-03-77 +++
         CLC   18(2,R1),=X'2009'    3330 DISK?     +++ DMA 02-03-77 +++
         BE    GOTRACKS                YES         +++ DMA 02-03-77 +++
         MVC   MAXTRKS,=F'15351'    SET MOD-11 TRKS+++ DMA 02-03-77 +++
         CLC   18(2,R1),=X'200D'    MOD-11 DISK?   +++ DMA 02-03-77 +++
         BE    GOTRACKS                YES         +++ DMA 02-03-77 +++
         MVC   MAXTRKS,=F'16649'    MUST BE 3350   +++ DMA 02-03-77 +++
GOTRACKS DS    0H
         L     R1,REGST
         C     R1,MAXTRKS
         BNE   OUT
         MSG   GOODMES,,PUT
         B     SHORTEND
OUT      MSG   BADMES,,PUT
         MVC   CNTR1,=PL3'0'
         XC    TSOTOT,TSOTOT
SPECLSE  BAL   R14,CLSEIT     GO CLOSE VTOC
SHORTEND MSG   MESSC,,PUT
         MVC   LINE(78),BLANKS
         MVC   S99TUPL(4),ADDRUNAL               ++++ DMA 07-28-76 ++++
         MVI   S99RB+1,UNALLOC                   ++++ DMA 07-28-76 ++++
         MVC   ALOCNAME(6),VOLSER                ++++ DMA 07-28-76 ++++
         LA    R1,S99RBPTR                       ++++ DMA 07-28-76 ++++
         DYNALLOC                                ++++ DMA 07-28-76 ++++
         B     VTOC001
         EJECT
DEL      ST    R14,REG14
         MSG   MESSD,,PUT
DELA     MVC   ANS,ANSCLR      CLEAR ANS AREA         WBF 04/08/79
         MSG   ANS,,GET        GET HIS REQUEST        WBF 04/08/79
         CLI   SW,X'00'        ATTENTION?             WBF 04/09/79
         BNE   DELSHRT         YES - GET OUT          WBF 04/09/79
         OI    ANS,X'40'
         CLI   ANS,C' '                               WBF 04/08/79
         BE    GOBACK                                 WBF 04/08/79%
         CLI   ANS,C'L'
         BE    LISTER
         CLI   ANS,C'R'                               WBF 04/08/79
         BE    RLSE                                   WBF 04/08/79
         CLI   ANS,C'Y'
         BE    YES
         CLI   ANS,C'X'       X-TYPE TSO COMMAND?     WBF 04/09/79
         BE    DELXTSO        YES
         CLI   ANS,C'C'       VERIFY CATALOG POINTER?
         BE    CATVER
         CLI   ANS,C'V'       DISPLAY VOLUME SERIAL?
         BE    VOLVER
         CLI   ANS,C'E'       NO
         BNE   LOPT2                                  WBF 04/08/79
DELSHRT  BAL   R14,CLSEIT     GO CLOSE VTOC
         B     SHORTEND
GOBACK   L     R14,REG14
         BR    R14
YES      DS    0H
         BAL   R14,UVERIFY    CHECK USER'S AUTHORITY
         B     NOTUSER          NOT AUTHORIZED RETURN POINT
***      B     *+4              AUTHORIZED RETURN POINT
         SR    R0,R0
         MVC   NAME(44),DSCB
         MVC   VNAME(6),VOLSER
         LH    R1,UCB         GET UCB ADDRESS
         MVC   VTYPE(4),16(R1)   MOVE IN DEVICE TYPE
         SCRATCH DSNVTOC
         CVD   R15,DBLWD
         OI    DBLWD+7,X'0F'
         UNPK  MESSE+11(2),DBLWD
         LTR   R15,R15               SCRATCH OK?
         BZ    UNCATIT               YES
*                                    NO
         LH    R15,VSTAT             GET SCRATCH STATUS CODE
         CVD   R15,DBLWD             PUT IT IN MESSAGE
         OI    DBLWD+7,X'0F'
         MVI   MESSE+13,C'/'
         UNPK  MESSE+14(2),DBLWD
         MVC   MESSE+16(18),=C', UNCATLG BYPASSED'
         B     ARRO
UNCATIT  MVC   MESSE+13(38),=CL38'   UNCATLG RC=XX'
         LOCATE INNAME
         LTR   R15,R15
         BNZ   NOTCAT
         CLC   VOLSER(6),BLK+6
         BNE   NOTVOL
         CATALOG UNCATLG
         CVD   R15,DBLWD
         OI    DBLWD+7,X'0F'
         UNPK  MESSE+27(2),DBLWD
         B     ARRO
NOTUSER  MSG   NOSCRMES,,PUT
         B     ARRO1
NOTCAT   MVC   MESSE+16(24),=C'DATASET IS NOT CATALOGED'
         B     ARRO
NOTVOL   MVC   MESSE+16(34),=C'DATASET CATALOGED ON VOLUME VVVVVV'
         MVC   MESSE+44(6),BLK+6
ARRO     MSG   MESSE,,PUT
ARRO1    L     R14,REG14
         BR    R14
         EJECT
LISTER   DS    0H
         TM    DSCB+82,X'40'  IS THE DATASET A PS TYPE
         BO    SETLIST
         TM    DSCB+82,X'02'  PARTITIONED?            WBF 04/08/79
         BO    LPDS           YES                     WBF 04/08/79
         MSG   MESSI,,PUT
         B     VTALL
         SPACE 2
SETLIST  XC    JFCBAREA,JFCBAREA    CLEAR AREA
         OI    JFCBAREA+52,X'08'    DONT REWRITE JFCB
         MVC   JFCBAREA(44),DSCB    MOVE IN DATA SET NAME
         MVC   JFCBAREA+118(6),PACK
         SR    R2,R2          CLEAR REG 2
         OPEN  (INDCB2,INPUT),TYPE=J
         LH    R2,INDCB2+82       GET REC LENGTH
GETER    GET   INDCB2
         MSG   (R1),(R2),PUT   WRITE OUT RECORD
         CLI   SW,255         DID USER INTERUPT US
         BNE   GETER          NO
         MVI   SW,0           CLEAR SWITCH
         EJECT
*-----
*----- CLOSE FILE AND FREE BUFFERS
*-----
CLOSE2   CLOSE INDCB2
         FREEPOOL INDCB2
         MVI   SW,0           RESET INTERUPT SWITCH
         B     VTALL          REFORMAT DSCB
         SPACE 3                                      WBF 04/08/79
LPDS     MSG   LPDSMSG,,PUT   ISSUE LPDS MESSAGE      WBF 04/08/79
         BAL   R14,XCMDSET    BUILD BASIC COMMAND     WBF 04/08/79
         MVC   XCMD+2(4),=C'LPDS'   FILL IN CMD NAME  WBF 04/08/79
         BAL   R7,XCMDGO      ISSUE COMMAND           WBF 04/09/79
         B     VOLVER                                 WBF 04/26/79
         SPACE 3                                      WBF 04/08/79
RLSE     BAL   R14,UVERIFY    CHECK USER'S AUTHORITY  WBF 04/26/79
         B     RLNOTUSR         NOT AUTHORIZED        WBF 04/26/79
***      B     *+4              AUTHORIZED            WBF 04/26/79
         BAL   R14,XCMDSET    BUILD BASIC COMMAND     WBF 04/08/79
         MVC   XCMD+2(4),=C'RLSE'   FILL IN CMD NAME  WBF 04/08/79
         LR    R2,R1          SAVE CMD POINTER        WBF 04/08/79
         MSG   MESSR,,PUT     ASK FOR AMT TO SAVE     WBF 04/08/79
         MSG   0(,R2),20,GET                          WBF 04/08/79
         CLI   SW,X'00'       ATTENTION?              WBF 04/09/79
         BNE   DELSHRT        YES - GET OUT           WBF 04/09/79
         BAL   R7,XCMDGO      ISSUE COMMAND           WBF 04/09/79
         OBTAIN DSCB1         RE-RETRIEVE DSCB        WBF 04/09/79
         MVC   DSCB+44(96),FMTXWK  PUT IN RIGHT PLACE WBF 04/09/79
         LTR   R15,R15        WAS OBTAIN GOOD?        WBF 04/09/79
         BZ    FMT3TST        YES - REDISPLAY DSCB    WBF 04/09/79
         MSG   MESSQ,,PUT     NO  - TELL USER         WBF 04/09/79
         B     GOBACK         GO TO NEXT DSCB         WBF 04/08/79
         SPACE 3
RLNOTUSR MSG   NORLSMES,,PUT  TELL USER HE CAN'T      WBF 04/26/79
         B     VTALL          RE-DISPLAY DSCB         WBF 04/26/79
DELXTSO  MVC   XCMD(L'ANS),ANS   PUT COMMAND IN BUFF  WBF 04/09/79
         BAL   R7,XCMDGO      ISSUE COMMAND           WBF 04/09/79
VOLVER   MVC   VOLMSG2+11(6),VOLSER  DISPLAY VOLSER   WBF 04/26/79
         MSG   VOLMSG2,,PUT                           WBF 04/26/79
         B     VTALL          REDISPLAY DSCB          WBF 04/09/79
         SPACE 3
CATVER   MVC   NAME(44),DSCB                          WBF 04/26/79
         LOCATE INNAME                                WBF 04/26/79
         LTR   R15,R15
         BNZ   CATVNOT
         CLC   VOLSER(6),BLK+6
         BNE   CATVNVOL
         MVC   VOLMSG3+37(6),VOLSER      ON THIS VOLUME
         MSG   VOLMSG3,,PUT
         B     VTALL
CATVNOT  MSG   VOLMSG4,,PUT              NOT CATALOGED
         B     VTALL
CATVNVOL MVC   VOLMSG5+24(6),BLK+6       ON A DIFFERENT VOLUME
         MSG   VOLMSG5,,PUT
         B     VTALL
         EJECT
*------CONVERT TO EBCDIC
DSCNVT   SR    R0,R0
DSCVT1   SLL   R0,8
         IC    R0,0(R2)
         LA    R2,1(R2)
         BCT   R6,DSCVT1
         LPR   R0,R0
         CVD   R0,DBLWD
         MVC   DBLWD+20(12),DBLWD+8
         ED    DBLWD+20(12),DBLWD+2
         BR    R14
*------GET TRACK COUNT FOR DEVICE TYPE
DEVTYPE  LA    R1,DEVTABLE-4
NEXTDEV  LA    R1,4(R1)
         CLC   0(2,R1),=X'0000'
         BE    NOTDASD
         CLC   0(2,R1),0(R8)
         BNE   NEXTDEV
         MVC   TRPRCY(2),2(R1)
         LH    R1,TRPRCY
         CVD   R1,TRPRCYP                              WBF 7/21/78
         BR    R14
*------ERROR IN OBTAIN MACRO
DSNBAD   MVC   LNE+30(6),SERIAL
         SLA   R15,3
         LA    R15,DSNERR-32(R15)
         MVI   LNE+28,C'-'
         MVC   LNE+38(32),0(R15)
         B     SETSCR
*------ VTOC ERROR MESSAGES
DSNERR   DS    0H
         DC    CL32'VOLUME NOT MOUNTED              '
         DC    CL32'NOT ON VOLUME                   '
         DC    CL32'PERMANENT I/O ERROR             '
         DC    CL32'INVALID WORK AREA POINTER       '
         DC    CL32'CCHH NOT IN VTOC                '
OPENFAIL DS    0H
         MVC   LINE,BLANKS
         CVD   R1,DBLWD
         OI    DBLWD+7,X'0F'
         MVC   LINE(L'MESSK),MESSK
         UNPK  LINE+L'MESSK(2),DBLWD
         MSG   LINE,,PUT
         B     RTURN          RETURN TO O/S
         SPACE 2
GETFAIL  DS    0H
         ST    R1,REGST       SAVE RETURN CODE FROM GET
         BAL   R14,CLSEIT     GO CLOSE FILE
         CLC   REGST,F4       IF RETURN CODE IS 4 THEN END OF FILE
         BE    CLOSER         GO TO CLOSING ROUTINES
         MSG   PERMMSG,,PUT   IF NOT 4 THEN PERMANENT I/O ERROR
         B     SHORTEND       GO TO SHORT END
         EJECT
*---- COMMON TPUT AND TGET ROUTINES
PUT      DS    0H
         TPUT  (1),(0),R      ISSUE MESSAGE TO TERMINAL
         BR    R7             RETURN TO CALLER
         SPACE 2
GET      DS    0H
         STM   R0,R1,TGETSAVE SAVE REGS 0,1
         TGET  TGETAREA,78    ISSUE TGET FOR MAX OF 78 BYTES
         OC    TGETAREA,BLANKS MAKE IT ALL UPPER CASE
         L     R14,TGETSAVE   GET LENGTH CALLER WANTED BACK
         L     R15,TGETSAVE+4 GET ADDRESS OF CALLER'S AREA
         BCTR  R14,0          SETUP FOR EX INST.
         EX    R14,GETMOVE    MOVE IT IN
         BR    R7             RETURN TO CALLER
GETMOVE  MVC   0(0,R15),TGETAREA
         SPACE 2
RTURN    DS    0H
*        ALLOCATE (ABEND)
         CLI   FLGS,255       IS A DD ALLOCATED
         BNE   RTURN01
         MVI   FLGS,FREEDD    SET FLAG TO DE-ALLOCATE DD
*        LINK  EP=IKJDAIR,PARAM=(FLGS,CPPL,DDNAME)
RTURN01  RTURN RC=0
         EJECT
XCMDSET  MVI   XCMD,C' '      CLEAR COMMAND AREA      WBF 04/08/79
         MVC   XCMD+1(L'XCMD-1),XCMD                  WBF 04/08/79
         MVC   XCMD(8),=C'X CCCC '''                  WBF 04/08/79
         MVC   XCMD+8(44),DSCB      PUT IN DSNAME     WBF 04/08/79
         LA    R1,XCMD+8            PUT IN LAST QUOTE WBF 04/08/79
         LA    R0,44                                  WBF 04/08/79
XCMDL    CLI   0(R1),C' '                             WBF 04/08/79
         BE    XCMDQ                                  WBF 04/08/79
         LA    R1,1(,R1)                              WBF 04/08/79
         BCT   R0,XCMDL                               WBF 04/08/79
XCMDQ    MVI   0(R1),C''''                            WBF 04/08/79
         MVC   1(5,R1),=C' VOL('    PUT IN VOLSER     WBF 04/08/79
         MVC   6(6,R1),VOLSER                         WBF 04/08/79
         MVI   12(R1),C')'                            WBF 04/08/79
         LA    R1,14(,R1)      POINT PAST OPERANDS    WBF 04/08/79
         BR    R14             RETURN TO CALLER       WBF 04/08/79
         SPACE 3                                      WBF 04/08/79