          MACRO
&NAME    GBLGENER
.***** START OF SPECIFICATIONS **************************************
.*
.* MODULE NAME - GBLGENER
.*
.* DESCRIPTIVE NAME - GBLGENER
.*
.* COPYRIGHT - NONE
.*
.* STATUS - CHANGE LEVEL 04
.*
.* FUNCTION -
.*       THE GBLGENER MACRO ALONG WITH THE MACRO SGSYSPAK CONTAIN ALL
.*       GLOBALS NEEDED TO GENERATE A SYSTEM. THE ASSEMBLED OUTPUT OF
.*       THIS MACRO IS THE MODULE CALLED SGGBLPAK.
.*
.* NOTES - THE GLOBALS ONCE CONTAINED IN GBLGENER AND THUS IN SGGBLPAK
.*       HAVE BEEN MOVED TO SGSYSPAK.  THIS WAS DONE TO ELIMINATE THE
.*       COMPLICATIONS INVOLVED IN THE INDIRECT MECHANISM.      Z40ASVN
.*
.* MODULE TYPE - MACRO
.*
.* ENTRY POINT - N/A
.*
.* INPUT - A CALL TO THE GBLGENER MACRO.
.*
.* OUTPUT - THE MODULE SGGBLPAK.
.*
.* EXIT, NORMAL - N/A
.*
.* EXIT, ERROR - N/A
.*
.* EXTERNAL REFERENCES - N/A
.*
.* TABLES - N/A
.*
.* MACROS - NONE
.*
.* CHANGE ACTIVITY - XM5245,Z30AALG,VS42058,Z40ASVN
.*         CHANGE FOR Z30AALG: INCREASE DEVICES FROM  768 TO 1023
.*         CHANGE FOR Z40ASVN: INCREASE DEVICES FROM 1023 TO 1917;
.*                             MOVE GLOBALS OUT TO SGSYSPAK.
.****** END OF SPECIFICATIONS ***************************************
         REPRO
    COPY SGSYSPAK
         MEND
