         MACRO
&NAME  IODEVICE  &UNIT=,&ADDRESS=,&MODEL=,&FEATURE=,&OFFLINE=NO,       *
               &OPTCHAN=,&ADAPTER=,&SETADDR=,&EXPBFR=,&TCU=,&AP=NO,    *
               &GCU=,&PCU=,&DEVTYPE=,&ERRTAB=,&NUMSECT=,&OBRCNT=,      *
               &ERROR                                          @ZA32966
         COPY  SGGBLPAK
         LCLA  &A,&I,&ML,&CB,&Q,&H
         LCLA  &X,&L,&M,&MM
         LCLA  &OP,&FC                                          G64HSPD
         LCLB  &IOC,&MULT,&CHKSW,&QUIT
         LCLB  &ALT(15),&LOC,&G,&S
         LCLB  &DSPRSW1                                         G64HSPD
         LCLB  &AB,&BB,&DB,&EB,&FB,&KB7,&KB8,&DOC
         LCLC  &BUF,&D,&E,&F,&ID,&N,&ADDR,&DENS
         LCLC  &O,&OA,&OB,&OC,&OD,&OE,&OF,&OG,&OH
         LCLC  &CH,&CL,&DF,&UT                                  G64HSPD
         ACTR  10000                                           OY03398
.***** START OF SPECIFICATIONS **************************************
.*
.* MODULE NAME - IODEVICE
.*
.* DESCRIPTIVE NAME - INPUT OUTPUT DEVICE GENERATION
.*
.* COPYRIGHT - NONE
.*
.* STATUS - CHANGE LEVEL 04
.* ADD 247921
.*
.* FUNCTION -
.*       THE IODEVICE MACRO DESCRIBES THE CHARACTERISTICS OF AN
.*       INPUT/OUTPUT DEVICE AND ITS OPERATING SYSTEM REQUIREMENTS.
.*       EACH UNIQUELY ADDRESSABLE I/O DEVICE IN THE SYSTEM MUST
.*       BE SPECIFIED IN AN IODEVICE MACRO INSTRUCTION.
.*
.* NOTES - N/A
.*
.* MODULE TYPE - MACRO
.*
.* ENTRY POINT - N/A
.*
.* INPUT - THE FOLLOWING PARAMETERS ARE ALLOWED ON THE IODEVICE MACRO
.*             &UNIT    - THE IBM SUPPLIED NAME OF THE DEVICE.
.*             &OFFLINE - SPECIFIES THE DEVICE IS CONSIDERED OFFLINE
.*                        AT IPL.
.*             &AP      - SPECIFIES THAT THE DEVICES WITH THIS
.*                        FEATURE WILL HAVE AP
.*                        (TAPE AND DIRECT ACCESS ONLY)
.*             &ADDRESS - SPECIFIES THE ADDRESS OR ADDRESSES OF
.*                        DEVICES OR TELECOMMUNICATION LINES.
.*             &ERROR   - CHECK FOR POSITIONAL PARAMETER.
.*             &ERRTAB  - SPECIFIES THAT AN ERROR ROUTINE, OTHER
.*                        THAN THE STANDARD IS TO BE USED.
.*             &DEVTYPE - ANY ADDITIONAL CHARACTERISTICS OF THE
.*                        DEVICE. MUST BE 8 HEX DIGITS.
.*             &MODEL   - SPECIFIES THE MODEL NUMBER, IF ANY, FOR
.*                        THE DEVICE.
.*             &FEATURE - SPECIFIES THE OPTIONAL FEATURES PRESENT
.*                        ON THE DEVICE.
.*             &TCU     - SPECIFIES THE TELEPROCESSING CONTROL UNIT
.*                        FOR A TELECOMMUNICATIONS LINE.
.*             &EXPBFR  - SPECIFIES THE AMOUNT OF BUFFER SPACE, IN
.*                        BYTES, REQUIRED BY PROGRAMS WRITTEN FOR
.*                        A 2250 MOD 1 USING EXPRESS ATTN HANDLING.
.*             &GCU     - SPECIFIES THE TYPE OF GRAPHICS CONTROL
.*                        UNIT TO WHICH A 2260 MOD 2 IS ATTACHED.
.*             &ADAPTER - SPECIFIES THE TERMINAL CONTROL UNIT OR
.*                        ADAPTER USED TO CONNECT A TELECOMMUNICATIONS
.*                        DEVICE TO A TRANSMISSION CONTROL UNIT.
.*             &NUMSECT - SPECIFIES THE NUMBER OF 256 BYTE BUFFER
.*                        SECTIONS IN THE 2840 CONTROL UNIT TO BE
.*                        AVAILABLE TO THE 2250 MOD 3.
.*             &OBRCNT  - THE NUMBER OF AREA STATIONS CONNECTED TO
.*                        THE 2715 TRANSMISSION CONTROL IN A 2790
.*                        DATA COMMUNICATIONS SYSTEM.
.*             &OPTCHAN - SPECIFIES THE OPTIONAL CHANNEL THROUGH
.*                        WHICH A 2305, 2314,3330,2401,2420,
.*                        3420 OR DUMMY MAY BE ADDRESSED.
.*             &PCU     - SPECIFIES THE NUMBER ASSIGNED TO THE
.*                        CONTROL UNIT TO WHICH THIS 2250 IS
.*                        ATTACHED.
.*             &SETADDR - SPECIFIES WHICH OF THE FOUR SET ADDRESS
.*                        COMMANDS IS TO BE ISSUED TO THE TRANS-
.*                        MISSION CONTROL UNIT FOR OPERATIONS ON
.*                        THE SPECIFIED LINE.
.*             &SIOF    - THE START I/O FAST RELEASE INSTRUCTION
.*                        MAY BE USED ON THIS DEVICE.
.*
.* OUTPUT -
.*       THE GLOBALS USED ARE -
.*             &SGMENTB(4)     - IODEVICE MACRO CALLED
.*             &SGCNTRA(2)     - COUNT OF 2840'S
.*             &SGCNTRA(3)     - DEVICE COUNT
.*             &SGDADRA(1-1917) - DEVICE ADDRESS AND RELATED SUBSCRIPTS
.*             &SGDASPA(1-1917) - SWITCH POINTER
.*             &SGQUITB        - QUIT SWITCH
.*             &SGDFXXB(1-1917) - FEATURE SWITCHES (XX = 01 THROUGH 15)
.*             01- 7-TRACK    02- 9-TRACK   03- READWRITE 04- DUALDENS
.*                 ALKYB2250      SHARED        PRGMKYBD      ABSLTVEC
.*                 ALKYB2260      LIGHTPEN      DEKYB2260     SCONTROL
.*                 CARDIMAGE      NMKYB2260     AUTOANSR      NUMLOCK
.*                 24ADDPOS       UNVCHSET      TWOLINE       370
.*                 AUTOPOLL       SELCHSET      MAGCDRD
.*                 AUDALRM        AUTOCALL      PERMRES
.*                 RPS            MULTILINE     3330V
.*                 CGS1           SELPEN
.*                                SHAREDUP
.*                                CGS2
.*
.*             05- MDECOMPAT  06- BUFFER8K  07- CHARGNTR  08- INTERRUPT
.*                 BUFFER4K       CHECKING      OIU           FRCHAR
.*                 XCONTROL       DUALCOMM      UKCHAR        AP
.*                 DUALCODE       ASCBCHAR      BURSTER
.*                 ASACHAR        OPT1600
.*                 MOD 4,6,8
.*                 OLTEP
.*                 SHAREDUP
.*
.*             09- DESIGNFT   10- EBKY3277  11- ASKY3277 12- DEKY3277
.*                 GRCHAR         ERRORLOG
.*                 SHAREABLE
.*
.*             13- OCKY3277   14- KB78KEY   15- KACHAR
.*                                KB81KEY   16- PTREAD         @ZA41353
.*
.*
.*             &SGDTXXB(1-1023) - DEVICE TYPE (XX = 1 THROUGH 12)
.*             &SGDUXXB(1-1023) - UNIT TYPE (XX = 1 THROUGH 13)
.*
.* DUXX DT01  DT02     DT03 DT04 DT05 DT06 DT07  DT08 DT09 DT10 DT12
.*   01 24XX  WTTA       *  1052 2250 1403 1442  1030   *  3838 2740X
.*   02   *  1287/2741P  *    *  2260 1404 2501  1050   *  7443 2740C
.*   03 34XX 1288/2741C  *  3210 1053 1443 2520  1060   *    *  2265
.*   04   *  1050X       *  3215   *  1419 2540R 2260   *    *  7770
.*   05   *     *        *    *    *  1275 2540P 115A   *    *  2955
.*   06   *   BSC1     2314   *  3066 3211 2671  83B3   *    *  3705
.*   07   *   BSC2     3330   *  3286 2245 2495  TWX    *    *  3704
.*   08   *   BSC3     2305   *  3277 3213 3505  2740   *    *    *
.*   09   *     *      3340   *  3284 3895 3525    *  CTC    *    *
.*   10   *     *      3350   *  3158 3800 3886    *    *    *  3791L
.*   11   *     *        *    *    *       3890    *    *    *    *
.*   12   *     *        *    *    *       3540    *    *    *    *
.*   13   *     *        *    *  3036      3851    *    *    *    *
.*
.*             &SG3410B(1-1917)- A 3410 IF &SGDT01B AND &SGDU03B
.*             &SG2305A        - NUMBER OF 2305'S SPECIFIED
.*             &SG2314A        - NUMBER OF 2314/2319'S SPECIFIED-9
.*             &SG3330A        - NUMBER OF 3330 DEVICES
.*             &SG3505A        - COUNT OF 3505 DEVICES
.*             &SG3525A        - COUNT OF 3525 DEVICES
.*             &SGDASDA        - COUNT OF DIRECT ACCESS DEVICES
.*             &SGBSCA         - OBRCNT= VALUE - MAX IS 800
.*             &SGBRSTB(1-1917)- BURST DEVICE ON CHANNEL
.*             &SGDEVB         - DEVTYPE SPECIFIES ENTRY SWITCH
.*             &SGDEVTP(1-1917)- ERRTAB=VALUE PLUS LAST 2 DIGITS OF
.*                               DEVTYPE.
.*             &SGDNBFA(1-1917)- NUMSECT=VALUE FOR 2250-3
.*             &SGDUMMY(1-1917)- UNIT=DUMMY
.*             &SGDOFFB(1-1917)- OFFLINE SPECIFIED
.*             &SGSIOF(1-1917) - SIOF INSTRUCTION CAN BE USED
.*             &SGOPCHA        - COUNT OF OPTIONAL CHANNEL PATHS
.*             &SGDAPXB(1-1917)- CHANNEL X ALTERNATE (X IS 1 THROUGH F)
.*             SGOPSUB(1-1917) - OPT.CHANNEL ON 2870 SELECTOR-SUBCHAN
.*
.*                             MODEL NO.  SAD CMDS.  2314/3330 NO.MODS
.*             &SGDM01B(1-1917) 1 N1 B1 B     0              1
.*             &SGDM02B(1-1917) 2 N2 B2 C     1              2
.*             &SGDM03B(1-1917) 3             2              3
.*             &SGDM04B(1-1917) 4             3              4
.*             &SGDM05B(1-1917) 5                            5
.*             &SGDM06B(1-1917) 6                            6
.*             &SGDM07B(1-1917) 7                            7
.*             &SGDM08B(1-1917) 8                            8
.*             &SGDM09B(1-1917)                              9
.*             &SGDM11B(1-1917) 3330 MODEL-11
.*
.*             &SGDAD1B(1-1917) - ADAPTER IBM1
.*             &SGDAD2B(1-1917) - ADAPTER IBM2
.*             &SGDAD3B(1-1917) - ADAPTER IBMT
.*             &SGDAD4B(1-1917) - ADAPTER TELE1
.*             &SGDAD5B(1-1917) - ADAPTER TELE2
.*             &SGDAD6B(1-1917) - ADAPTER IBM3
.*             &SGDAD7B(1-1917) - ADAPTER BSCA
.*             &SGDAD8B(1-1917) - ADAPTER TELEW
.*
.*             &SGCUN1A(1-1917) - EXPRESS BUFFERS ON 2840 FOR 2250-3
.*             &SGUNM1B(1-1917) - GRAPHICS CONTROL UNIT FOR 2260-2
.*             &SGUNM2B(1-1917) - GRAPHICS CONTROL UNIT FOR 2260-2
.*             &SGUNM3B(1-1917) - GRAPHICS CONTROL UNIT FOR 2260-1
.*             &SGUNM4B(1-1917) - GRAPHICS CONTROL UNIT FOR 2260-2
.*             &SGUNM5B(1-1917) - GRAPHICS CONTROL UNIT FOR 2260-2
.*                       &SGUNT1B   &SGUNT2B  &SGUNT3B
.*             &SGUNU1B      *      TCU=2701  TCU=2703
.*             &SGUNU2B      *      TCU=2702     *
.*             &SGUNF1B(1-1917) - CARDIMAGE, LINEADDR
.*             &SGUNF2B(1-1917) - DATACONV,NODESCUR
.*             &SGUNF5B(1-1917) - SHARED
.*
.*             &SGDCLSB(3)     - 24XX TAPE DRIVES
.*             &SGDCLSB(4)     - 3704 COMMUNICATIONS CONTROLLER
.*             &SGDCLSB(5)     - 3705 COMMUNICATIONS CONTROLLER
.*             &SGDCLSB(6)     - CONSOLE KEYBOARD-PRINTERS
.*             &SGDCLSB(8)     - GRAPHIC (CRT) TYPE DEVICES
.*             &SGDCLSB(9)     - 2250 DISPLAY STATIONS
.*             &SGDCLSB(10)    - 2260 DISPLAY STATIONS
.*             &SGDCLSB(12)    - READER-PUNCH UNITS
.*             &SGDCLSB(16)    - 2501 CARD READER
.*             &SGDCLSB(17)    - 2520 CARD PUNCH
.*             &SGDCLSB(18)    - 2520 CARD PUNCH
.*             &SGDCLSB(19)    - 2540 CARD READER
.*             &SGDCLSB(20)    - 2540 CARD PUNCH
.*             &SGDCLSB(21)    - 2671 PAPER TAPE READER
.*             &SGDCLSB(22)    - 3350                          @ZM41663
.*             &SGDLCSB(23)    - 1403 PRINTER
.*             &SGDCLSB(25)    - 1443 PRINTER
.*             &SGDCLSB(26)    - 3895 DOC READER/INSCRIBER     G30HSVN
.*             &SGDCLSB(26)    - 3895
.*             &SGDCLSB(27)    - 3540 DISKETTE                 @Y30OS
.*             &SGDCLSB(28)    - 3851 DISK                     @Y30LBOS
.*             &SGDCLSB(29)    - 3838 ARRAY PROCESSOR           G29ASVN
.*             &SGDCLSB(33)    - TELECOMMUNICATIONS CLASS DEVICES
.*             &SGDCLSB(39)    - 1053 PRINTER ON 2848 CONTROL
.*             &SGDCLSB(40)    - RECORD OVERFLOW DEVICES
.*             &SGDCLSB(41)    - 2314 DISK DRIVE
.*             &SGDCLSB(43)    - 3036 CONSOLE                   G51DSPD
.*             &SGDCLSB(44)    - 7443 SYSTEM RECORD FILE        G51DSPD
.*             &SGDCLSB(50)    - 2740 COMMUNICATIONS TERMINAL
.*             &SGDCLSB(54)    - SHARED DIRECT ACCESS DEVICES
.*             &SGDCLSB(55)    - 1403 UCS FEATURE
.*             &SGDCLSB(56)    - 3791L LOCAL CHANNEL ATTACHMENT Z40KSVN
.*             &SGDCLSB(57)    - 2420 TAPE
.*             &SGDCLSB(58)    - 1287 OPTICAL CHARACTER READER
.*             &SGDCLSB(59)    - 1288 OPTICAL PAGE READER
.*             &SGDCLSB(60)    - 3066 OPERATOR CONSOLE
.*             &SGDCLSB(61)    - 2495 TAPE CARTRIDGE READER
.*             &SGDCLSB(62)    - 1050X TERMINAL
.*             &SGDCLSB(63)    - 2740X TERMINAL
.*             &SGDCLSB(64)    - 2740C TERMINAL
.*             &SGDCLSB(65)    - 1419 MAGNATIC CHECK READER
.*             &SGDCLSB(66)    - 1275 OPTICAL CHECK READER
.*             &SGDCLSB(67)    - 7770 AUDIO RESPONSE DEVICE
.*             &SGDCLSB(68)    - 2265 DESPLAY DEVICE
.*             &SGDCLSB(69)    - 3330, 3330V DISK FACILITY
.*             &SGDCLSB(70)    - 2305 FIXED HEAD DISK FILE
.*             &SGDCLSB(71)    - 3211 PRINTER
.*             &SGDCLSB(72)    - 2955 REMOTE ANALYSIS TERMINAL
.*             &SGDCLSB(73)    - 3420 TAPE DRIVE
.*             &SGDCLSB(74)    - 2245 PRINTER
.*             &SGDCLSB(75)    - 2305 MOD 1
.*             &SGDCLSB(76)    - 2305 MOD 2
.*             &SGDCLSB(77)    - 3410 IN SYSTEM
.*             &SGDCLSB(78)    - 3505 IN SYSTEM
.*             &SGDCLSB(79)    - 3525 IN SYSTEM
.*             &SGDCLSB(80)    - ANR DEVICE IN SYSTEM
.*             &SGDCLSB(81)    - 3800 DEVICE IN SYSTEM
.*             &SGDCLSB(82)    - HASB DEVICE IN SYSTEM
.*             &SGDCLSB(83)    - CTC  DEVICE IN SYSTEM
.*             &SGDCLSB(84)    - 3340
.*             &SGDCLSB(85)    - 3330 MODEL 11
.*             &SGDCLSB(86)    - 3890
.*             &SGDCLSB(87)    - 3886
.*             &SGDCLSB(88)    - RPS 3340
.*
.*
.*    GLOBALS USED TO PASS IODEVICE SPECIFICATION PARAMETERS
.*    TO DSP MACRO EXITS  -
.*             &SGADRPC(1)   - DEVICE ADDRESS SPECIFICATION
.*             &SGADRPC(2)   - ADDRESS MULTIPLIER
.*             &SGFCNTA      - NUMBER OF FEATURES PARMS
.*             &SGFETPC(20)  - FEATURES SPECIFIED
.*             &SGOPCTA      - NUMBER OF OPTIONAL CHANNELS
.*             &SGDVTPC      - DEVICE TYPE SPECIFICATION
.*             &SGERTPC      - ERRTAB ERROR ROUTINE SUFFIX
.*             &SGAPPMC      - ALTERNATE POWER SOURCE PARM
.*             &SGOFLPC      - OFFLINE PARM
.*             &SGMDLPC      - MODEL PARM
.*             &SGADPTR      - ADAPTER FOR TELECOMMUNICATIONS LINES
.*
.*       LOCALS USED ARE -
.*             &A    - COUNTER FOR SUBLIST
.*             &I    - POINTER FOR SETTING SWITCHES
.*             &ML   - NUMBER OF OPTCHANS
.*             &Q    - COUNTER
.*             &CB   -
.*             &H    - CHANNEL ADDRESS
.*             &X    - COUNT OF CHARACTERS IN DEVICE TYPE
.*             &L    -
.*             &M    - NUMBER OF UNITS
.*             &MM   - NUMBER OF UNITS
.*             &IOC  - CONTROL UNIT
.*             &MULT - MULTIPLE DEVICES IN SPECIFICATION
.*             &CHKSW- ERROR CREATE ONE SGDADRA
.*             &QUIT - ERROR, SET QUIT SWITCH
.*             &ALT  - OPTIONAL CHANNEL WITH SELECTOR SUBCHANNEL
.*             &LOC  - MOD LOCAL
.*             &G    - 2740
.*             &S    - NO FEATURES
.*             &AB   - DOM. CHAR GENERATOR SW, AUTOPOLL ONLY VALID
.*             &BB   - AUTOPOLL INVALID
.*             &DB   - AUTOANSR ONLY VALID FEATURE
.*             &EB   - IBM1 ADAPTER
.*             &FB   - 2740C, 2740X
.*             &KB8  - 81 KEY KEYBOARD
.*             &DOC  - DOMESTIC CHARACTER GENERATOR
.*             &ID   - USERS CALL NAME OR NUMBER FOR MNOTES
.*             &ADDR - DEVICE ADDRESS
.*             &O    - COMBINATION OF CHARS OF DEVICE TYPE
.*             &OA   - FIRST CHARACTER OF DEVICE TYPE
.*             &OB   - SECOND CHARACTER OF DEVICE TYPE
.*             &OC   - THIRD CHARACTER OF DEVICE TYPE
.*             &OD   - FOURTH CHARACTER OF DEVICE TYPE
.*             &OE   - FIFTH CHARACTER OF DEVICE TYPE
.*             &OF   - SIXTH CHARACTER OF DEVICE TYPE
.*             &OG   - SEVENTH CHARACTER OF DEVICE TYPE
.*             &OH   - EIGHTH CHARACTER OF DEVICE TYPE
.*             &CH   - WORK STOR. FOR TESTING ADDRESS OPTIONS
.*             &CL   - WORK STOR. FOR TESTING ADDRESS OPTIONS
.*             &DF   - WORK STOR. FOR TESTING ADDRESS OPTIONS
.*             &FC   - WORK STOR. FOR TESTING ADDRESS OPTIONS
.*             &UT   - WORK STOR. FOR TESTING ADDRESS OPTIONS
.*             &OP   - WORK STOR. FOR COUNTING OP. CHANNELS
.*
.* EXIT, NORMAL - N/A
.*
.* EXIT, ERROR - N/A
.*
.* EXTERNAL REFERENCES - N/A
.*
.* TABLES - N/A
.*
.* MACROS - CONVERT - CONVERTS A NUMBER FROM HEX TO DECIMAL
.*        - SGSETDIT - BUILDS THE DIT FOR OLD DEVICES
.*
.*        - SGDSPDIT - INVOKES THE MACRO EXITS THAT BUILD THE DIT
.*                     FOR NEW DEVICES
.*
.*        - SGDSPDFT - INVOKES THE MACRO EXITS THAT BUILD THE DFT
.*                     FOR NEW DEVICES
.*
.* CHANGE ACTIVITY  ZA00805,ZM00043,ZM33354,X40MSTG,Z30RSTA,
.*                  Z40KSVN,VS40488,G30HSVN,G29ASVN,
.*                  OZ07710,OZ15968,@ZA16005,@ZA30097,@ZA30241,
.*                  @ZA32966,@ZA37298,@ZA41353,@ZA44226,@ZA44022
.*                  G64HSPD,@ZA71929
.*
.***** END OF SPECIFICATIONS ****************************************
         AIF   (&SGMENTB(4)).START      IODEVICE USED BEFORE
.*   INVOKE  SGSETDIT  TO INITIALIZE THE DASD ENTRIES
         SGSETDIT
.*
&SGDITDA     SETA  200                  SET DIT HIGHEST INDEX   G64HSPD
&SGCPRGB(8)  SETB  1                    INDICATE VS2 GEN
&SGMENTB(4)  SETB  1                    SET ENTRY SW FOR 1ST IODEV CALL
    MNOTE *,'    MAXIMUM OF 1917 I/O DEVICES ALLOWED'           Z40ASVN
.START   ANOP
&SGCNTRA(3) SETA &SGCNTRA(3)+1          COUNT OF DEVICES TO BE SYSGENED
&I       SETA  &SGCNTRA(3)              SET LCLA PTR FOR SETTING SWT.S
         AIF   ('&NAME' EQ '').INSERT   DID USER SUPPLY MACRO-CALL NAME
&ID      SETC  '&NAME'                  PUT USER'S CALL-NAME IN MNOTES
         AGO   .TESTCNT                 GO TEST FOR MAX DEV.S SYSGENED
.INSERT  ANOP                           ENTER RTN TO PLUG IN MACRO NO.
&ID      SETC  'DEV.#&I'                PUT MACRO-CALL-NO. INTO MNOTES
.TESTCNT AIF   (&SGCNTRA(3) GT 1917).MX                         Z40ASVN
         AIF   (T'&UNIT EQ 'O').AA      IF UNIT OMITTED GO TO ERROR RTN
         AIF   (T'&MODEL EQ 'O').R4     IF MOD OMIT,PUT UNT ONLY IN &&C
&LOC     SETB  1                        MOD LOCAL USED LATER FOR TESTNG
.**********************************************************************
.**********************************************************************
.**                                                                  **
.**                DEVICES SUPPORTED IN VS2 RELEASE 4                **
.**                                                                  **
.**********************************************************************
.**********************************************************************
.R4      AIF   ('&ERROR' EQ '').SYNTAX  SYNTAX CHECK.          @ZA32966
    MNOTE 5,'* * *&ERROR SPECIFIED AS A POSITIONAL PARAMETER'  @ZA32966
&SGQUITB  SETB  1                                              @ZA37298
.SYNTAX  ANOP                                                  @ZA32966
         AIF   ('&UNIT' EQ '2401').T2400
         AIF   ('&UNIT' EQ '2420').T2400
         AIF   ('&UNIT' EQ '3410').T3410
         AIF   ('&UNIT' EQ '3420').T3420
         AIF   ('&UNIT' EQ '2495').T2495
         AIF   ('&UNIT' EQ '1287').OPTCHAR
         AIF   ('&UNIT' EQ '1288').OPTCHAR
         AIF   ('&UNIT' EQ '2305').D2305
         AIF   ('&UNIT' EQ '2314').D2314
         AIF   ('&UNIT' EQ '2319').D2314
         AIF   ('&UNIT' EQ '3330').D3330
         AIF   ('&UNIT' EQ '3330V').D3330V                    @Y30LS04
         AIF   ('&UNIT' EQ '3340').D3340
         AIF   ('&UNIT' EQ '3350').D3350                       @Z30RSTA
         AIF   ('&UNIT' EQ '3540').DIS3540                     @Y30OS
.*                                                             @G64HSPD
.*    CHECK THIS DEVICE FOR POST RESTRUCTURE IMPLEMENTATION    @G64DSPD
         SGDSPDIT UNIT=&UNIT,ID=&ID                            @G64HDPD
.*    IF POST RESTRUCTURE, GO PREPARE IODEVICE PARMS FOR DSP   @G64DSPD
         AIF   (&SGDITXA(&SGCNTRA(3)) NE 0).DSPADR             @G64DSPD
.*                                                             @G64HSPD
         AIF   ('&UNIT' EQ '1052').K1052
         AIF   ('&UNIT' EQ '3210').K3210
         AIF   ('&UNIT' EQ '3215').K3215
         AIF   ('&UNIT' EQ '3066').DIS3066
         AIF   ('&UNIT' EQ '3158').DIS3158
         AIF   ('&UNIT' EQ '2250').DIS2250
         AIF   ('&UNIT' EQ '1053').DIS1053
         AIF   ('&UNIT' EQ '3036').DIS3036                      G51DSPD
         AIF   ('&UNIT' EQ '3277').DC3277
         AIF   ('&UNIT' EQ '3284').DC3284
         AIF   ('&UNIT' EQ '3286').DC3286
         AIF   ('&UNIT' EQ '1403').PRT1403
         AIF   ('&UNIT' EQ '1404').PRT1404
         AIF   ('&UNIT' EQ '1443').PRT1443
         AIF   ('&UNIT' EQ '3211').PRT3211
         AIF   ('&UNIT' EQ '3800').PRT3800                     @Z40MSTG
         AIF   ('&UNIT' EQ '3213').PRT3213
         AIF   ('&UNIT' EQ '1419').CHKRDR
         AIF   ('&UNIT' EQ '1275').CHKRDR
         AIF   ('&UNIT' EQ '2501').CR2501
         AIF   ('&UNIT' EQ '2520').CRP2520
         AIF   ('&UNIT' EQ '2540R').CR2540
         AIF   ('&UNIT' EQ '2540P').CP2540
         AIF   ('&UNIT' EQ '3505').CR3505
         AIF   ('&UNIT' EQ '3525').CP3525
         AIF   ('&UNIT' EQ '2671').RDR2671
         AIF   ('&UNIT' EQ '3886').RD3886   IF 3886 RDR GO TO RTN
         AIF   ('&UNIT' EQ '3890').RD3890   IF 3890 RDR GO TO RTN
         AIF   ('&UNIT' EQ '3838').A3838    IF 3838 ARRAY PROC  G29ASVN
         AIF   ('&UNIT' EQ '7443').S7443    IF SRF              G51DSPD
         AIF   ('&UNIT' EQ '1030').TP1030
         AIF   ('&UNIT' EQ '1050').TP1050
         AIF   ('&UNIT' EQ '1050X').TP1050X
         AIF   ('&UNIT' EQ '1060').TP1060
         AIF   ('&UNIT' EQ '2260' AND '&ADAPTER' EQ '').DS2260 2260GR
         AIF   ('&UNIT' EQ '2260' AND '&ADAPTER' NE '').TP2260
         AIF   ('&UNIT' EQ '2265').TP2265
         AIF   ('&UNIT' EQ '115A').TP115A
         AIF   ('&UNIT' EQ '2740').TP2740
         AIF   ('&UNIT' EQ '2740C').TP2740C
         AIF   ('&UNIT' EQ '2740X').TP2740X
         AIF   ('&UNIT' EQ '2741P').TP2741P
         AIF   ('&UNIT' EQ '2741C').TP2741C
         AIF   ('&UNIT' EQ '83B3').TP83B3
         AIF   ('&UNIT' EQ 'TWX').TPTWX
         AIF   ('&UNIT' EQ 'WTTA').TPWTTA
         AIF   ('&UNIT' EQ 'BSC1').TPBSC1
         AIF   ('&UNIT' EQ 'BSC2').TPBSC2
         AIF   ('&UNIT' EQ 'BSC3').TPBSC3
         AIF   ('&UNIT' EQ '7770').TP7770
         AIF   ('&UNIT' EQ '2955').TP2955
         AIF   ('&UNIT' EQ '3704').TP3704
         AIF   ('&UNIT' EQ '3705').TP3705
         AIF   ('&UNIT' EQ '3791L').TP3791                      Z40KSVN
         AIF   ('&UNIT' EQ 'CTC').TPCTC
         AIF   ('&UNIT' EQ '3851').D3851                       @Y30LBOS
         AIF   ('&UNIT' EQ '3895').D3895                        G30HSVN
         AIF   ('&UNIT' EQ 'DUMMY').DD  IF DUMMY DEV SPEC, BR DUMMY RTN
    MNOTE 5,'* * * IEIIOD101 &ID-UNIT VALUE &UNIT INVALID'
         AGO   .BADUNIT                 INVALID UNIT SPCFD-GO ERROR RTN
.*****    THE FOLLOWING DEVICES ARE NOT SUPPORTED FOR VS2-2   ****
.*       AIF   ('&UNIT' EQ '2415').T2400
.*       AIF   ('&UNIT' EQ '2245').PRT2245
.*       AIF   ('&UNIT' EQ '1442').CRP1442
.AA MNOTE 5,'* * * IEIIOD102 &ID-UNIT VALUE NOT SPECIFIED'
.BADUNIT ANOP
&SGDASPA(&I)   SETA  &I                                         Z40ASVN
&SGQUITB SETB  1
         AGO   .AP
.**********************************************************************
.**********           TAPE DRIVES                            **********
.**********************************************************************
.T2400   ANOP                           SET ONE GLOBAL TYP SW FOR 2400
&ML      SETA  1                        2400 W/NO READWRT,MAX OPTCHAN=1
.F6 MNOTE *,'     &UNIT MAGNETIC TAPE DRIVE '
&SGDU01B(&I)   SETB 1                   GLOBAL UNIT SWITCH 1 FOR 2400TP
&SGDF04B(&I)   SETB ('&UNIT' EQ '2415')
&SGDT01B(&I)   SETB 1                   GLOBAL TYPE SW 1 FOR TAPE
&SGDCLSB(3)  SETB  1                    A 2400 TAPE DRIVE WAS SPECD
 AIF ('&UNIT' EQ '2420').T2420
         AIF (NOT &LOC).AB              BR ERROR RTN IF MOD VALUE OMITD
         AIF   (T'&MODEL NE 'N').XX
         AIF   (&MODEL EQ 1 OR &MODEL EQ 2 OR &MODEL EQ 3 OR &MODEL EQ *
               4 OR &MODEL EQ 5 OR &MODEL EQ 6).AC
         AIF   (&MODEL EQ 8 AND '&UNIT' EQ '2401').AC
.XX MNOTE 5,'* * * IEDIIOD103 &ID-MODEL VALUE &MODEL INVALID'
&SGQUITB SETB  1
         AGO   .TFEATRE
.T3410 MNOTE *,'     3410 MAGNETIC TAPE DRIVE'
&SGDT01B(&I)   SETB  1             TAPE
&SGDU03B(&I)   SETB  1             3400
&SG3410B(&I)   SETB  1             3410
&SGDCLSB(77)   SETB  1             3410 CLASS
&SGDF10B(&I)   SETB  1             ERROR LOG PRESENT           @Z40MSTG
         AIF   (T'&MODEL EQ 'O').AB
         AIF ('&MODEL' EQ '1' OR '&MODEL' EQ '2' OR '&MODEL' EQ '3').AC
         AGO   .XX
.T3420 MNOTE *,'     3420 MAGNETIC TAPE DRIVE'
&SGDT01B(&I)   SETB  1             TAPE
&SGDU03B(&I)   SETB  1             3400
&SGDCLSB(73)   SETB  1             3420 CLASS
&SGDF10B(&I)   SETB  1             ERROR LOG PRESENT           @Z40MSTG
&ML      SETA  1                  ONE OPTIONAL CHANNEL ALLOWED
         AIF   (T'&MODEL EQ 'O').AB
         AIF ('&MODEL' EQ '3' OR '&MODEL' EQ '5' OR '&MODEL' EQ '7' OR *
               '&MODEL' EQ '4' OR '&MODEL' EQ '6' OR '&MODEL' EQ '8').A*
               C
         AGO   .XX
.**********************     TAPE MODEL     ***************************
.AC MNOTE *,'     MODEL &MODEL'
&SGDM01B(&I)  SETB (&MODEL EQ 1)   GLOBAL MODEL SWITCH 1
&SGDM02B(&I)  SETB (&MODEL EQ 2)   GLOBAL MODEL SWITCH 2
&SGDM03B(&I)  SETB (&MODEL EQ 3)   GLOBAL MODEL SWITCH 3
&SGDM04B(&I)  SETB (&MODEL EQ 4)   GLOBAL MODEL SWITCH 4
&SGDM05B(&I)  SETB (&MODEL EQ 5)   GLOBAL MODEL SWITCH 5
&SGDM06B(&I)  SETB (&MODEL EQ 6)   GLOBAL MODEL SWITCH 6
&SGDM07B(&I)  SETB (&MODEL EQ 7)   GLOBAL MODEL SWITCH 7
&SGDM08B(&I)  SETB (&MODEL EQ 8)   GLOBAL MODEL SWITCH 8
         AIF  (('&UNIT' EQ '3420') AND ('&MODEL' EQ '4' OR '&MODEL' EQ *
               '6' OR '&MODEL' EQ '8')).ACACA
         AGO   .TFEATRE
.ACACA   ANOP
&SGDF05B(&I)   SETB 1
         AGO   .TFEATRE
.AB MNOTE 5,'* * * IEIIOD104 &ID-MODEL VALUE NOT SPECIFIED'
&SGQUITB SETB  1
.***********************    TAPE FEATURES   **************************
.TFEATRE  AIF  (T'&FEATURE EQ 'O').HEADTST
    MNOTE *,'     FEATURE(S) '
.MORE1 AIF (N'&FEATURE EQ &A).HEADTST   DONE WITH FEATURES YET
&A       SETA  &A+1
         AIF   ('&FEATURE(&A)' EQ '7-TRACK').F1 WAS 7-TRACK HD SPECD
         AIF   ('&FEATURE(&A)' EQ '9-TRACK').F2 WAS 9-TRACK HD SPECD
 AIF ('&FEATURE(&A)' EQ 'READWRITE' AND('&UNIT' EQ '2401' OR '&UNIT' EQX
                '2402')).F3             RDWT VALID OPTL FEAT ON 2401/02
         AIF   ('&FEATURE(&A)' EQ 'DUALDENS').F4  WAS DUALDENS SPECD
         AIF   ('&FEATURE(&A)' EQ 'SHARABLE').F5A WAS SHARABLE SPECD
         AIF   ('&FEATURE(&A)' EQ 'OPT1600').F5   WAS OPT1600 SPECD
         AIF   ('&FEATURE(&A)' EQ 'MDECOMPAT').F7 WAS MDECOMPAT SPECD
         AIF   ('&FEATURE(&A)' EQ 'DATACONV').F8
         AIF   ('&FEATURE(&A)' EQ 'ALTCTRL').F9
    MNOTE 5,'* * * IEIIOD105 &ID-FEATURE VALUE &FEATURE(&A) INVALID'
&SGQUITB SETB  1
         AGO   .MORE1
.F1 MNOTE *,'        7-TRACK HEAD '
&SGDF01B(&I) SETB 1                     GLOBAL FEAT. SW 1 FOR 7-TRK HED
         AIF  (('&UNIT' EQ '3420') AND ('&MODEL' NE '3' AND '&MODEL' NE*
               '5' AND '&MODEL' NE '7')).MM
.*     NEXT TWO LINES ADDED FOR OZ16005                        @ZA16005
         AIF  (('&UNIT' EQ '2401') AND ('&MODEL' NE '1' AND '&MODEL' NE*
               '2' AND '&MODEL' NE '3' AND '&MODEL' NE '8')).MM
.F1A     AIF   (&SGDF02B(&I)).AD        7-TRK & 9-TRK MUTUALLY EXCLUSVE
         AGO   .MORE1
.F2 MNOTE *,'        9-TRACK HEAD '
&SGDF02B(&I) SETB 1                     GLOBAL FEAT. SW 2 FOR 9-TRK HED
         AIF   ('&MODEL' EQ '8' AND '&UNIT' NE '3420').F2A
         AIF   (&SGDF01B(&I)).AD        7-TRK & 9-TRK MUTUALLY EXCLUSVE
         AGO   .MORE1
.AD MNOTE 5,'* * * IEIIOD115 &ID-7-TRACK/9-TRACK MUTUALLY EXCLUSIVE'
&SGQUITB  SETB  1
   AGO   .MORE1
.F2A MNOTE 5,'* * * IEIIOD113 2401 MODEL 8 EXCLUSIVELY 7-TRACK'
&SGQUITB SETB  1
         AGO   .MORE1
.F3 MNOTE *,'        SIMULATANEOUS READ WHILE WRITE '
&SGDF03B(&I)   SETB 1                   GLOBAL FEATURE SWITCH 3
&ML      SETA  1                        2401,-02 W/RDWT,ONLY 1 OPCH REQ
         AGO   .MORE1
.F4      AIF   ('&UNIT' EQ '3410').BI   ALL 3410 MODELS VALID
         AIF   ('&UNIT' EQ '3420').F4A
     AIF  ('&MODEL' EQ '4' OR '&MODEL' EQ '5' OR '&MODEL' EQ '6').BI
.MM MNOTE 5,'* * * IEIIOD108 FEATURE &FEATURE(&A) INVALID FOR &UNIT MOD*
               EL &MODEL'
&SGQUITB SETB  1
         AGO   .MORE1
.F4A  AIF  ('&MODEL' EQ '3' OR '&MODEL' EQ '5' OR '&MODEL' EQ '7').BI
         AGO   .MM
.BI MNOTE *,'       DUAL DENSITY FEATURE'
&SGDF04B(&I)   SETB 1                        DUALDENS FEATURE SW
         AIF   (&SGDF06B(&I)).F8A             OPT1600 FEATURE SW
         AGO   .MORE1
.F5A     AIF   ('&UNIT' EQ '3420').F5B
    MNOTE 5,'* * * IEIIOD106 &ID-FEATURE SHARABLE INVALID FOR &UNIT'
         AGO   .MORE1
.F5B     ANOP
     MNOTE *,'       DEVICE SHARABILITY FEATURE'
&SGDF09B(&I)    SETB   1
         AGO   .MORE1
.F5      AIF   ('&UNIT' NE '3420').MM        3420 ONLY VALID UNIT
      AIF  ('&MODEL' EQ '3' OR '&MODEL' EQ '5' OR '&MODEL' EQ '7').MM
    MNOTE *,'        OPT1600 SPECIFIED'
&SGDF06B(&I)   SETB 1
         AIF   (&SGDF04B(&I)).F8A            DUALDENS SPECIFIED
         AGO   .MORE1
.F7      AIF   ('&UNIT' EQ '3420').MM        INVALID GO TO ERROR
         AIF   ('&UNIT' EQ '3410').MM        INVALID GO TO ERROR
         AIF   ('&MODEL' EQ '4' OR '&MODEL' EQ '5' OR '&MODEL' EQ '6'  *
               OR '&MODEL' EQ '8' OR '&UNIT' EQ '2415').MM
    MNOTE *,'        MODE COMPATIBILITY FEATURE'
&SGDF05B(&I)   SETB 1