         MACRO
&NAME    DONTSWAP
         MODESET KEY=ZERO,MODE=SUP
*        SR    R1,R1
*        IC    R0,=X'29'      ISSUE "HOLD" SYSEVENT
*        SYSEVENT DONTSWAP,ASID=(R4)
         SYSEVENT DONTSWAP,ASID=(R4)
         LR    R3,R1
         MODESET KEY=NZERO,MODE=PROB
         MEND
         MACRO
&NAME    OKSWAP
         MODESET KEY=ZERO,MODE=SUP
         SR    R1,R1
         IC    R0,=X'2A'      ISSUE "NOHOLD" SYSEVENT
         SVC   95
         LR    R3,R1
         MODESET KEY=NZERO,MODE=PROB
         MEND
DONTSWAP PROLOG R,LV=196
         SR    R0,R0
         L     R2,16         <== CVT
         L     R2,0(R2)      <== OLD/NEW
         L     R2,12(R2)     <== OUR ASCB
         LH    R2,36(R2)     OUR ASID
         LR    R4,R2
         SL    R2,16
         LR    R0,R2
*
         DONTSWAP
         LR    R15,R3
OKEXIT   EPILOG RC=(15)
         LTORG
         END
