         MACRO
&NAME    EPILOG &RC=
.*                                                                    *
.*       G B L A    C O P Y  G R O U P                                *
.*                                                                    *
         GBLA  &DP(33)
         GBLA  &GCT
         GBLA  &GCOUNT
         GBLA  &LVNUM
         GBLA  &REG
.*                                                                    *
.*       G B L B    C O P Y  G R O U P                                *
.*                                                                    *
         GBLB  &DBLE
         GBLB  &LIST
         GBLB  &DBUG
         GBLB  &EQU
         GBLB  &WDSW
         GBLB  &RENT
         GBLB  &PLG
         GBLB  &ONETM
         GBLB  &DASHS
         GBLB  &PWRK
         GBLB  &RCD
.*                                                                    *
.*       G B L C    C O P Y  G R O U P                                *
.*                                                                    *
         GBLC  &WD(33)
         GBLC  &NAM
         GBLC  &DNAM
         GBLC  &ONAM
         GBLC  &INAM
         GBLC  &RNAM
         GBLC  &NDX
         GBLC  &CSECT
         GBLC  &DSECT
         AIF   (&LIST).LIST
         AGO   .LISTX
.LIST    ANOP
         EJECT
         SPACE 4
*                                                                     *
*                                                                     *
*        E P I L O G    M A C R O                                     *
*                                                                     *
*                                                                     *
         SPACE 4
*                                                                     *
*        FUNCTION:                                                    *
*                   CREATES TERMINAL CODING (EXIT) FOR AN             *
*                   ASSEMBLY LANGUAGE MODULE:                         *
*                        2.   REGISTER RESTORATION                    *
*                        1.   DELETE SAVE AREA (FREEMAIN)             *
*                        3.   RETURN TO CALLER                        *
*                                                                     *
*        FORMAT:                                                      *
*                                                                     *
*              NAME  EPILOG                                           *
*                                                                     *
*              NOTE THAT THIS MACRO MUST BE USED WITH THE             *
*              - PROLOG -  MACRO                                      *
*                                                                     *
*                                                                     *
         MEXIT
.LISTX   ANOP
         AIF   (&PLG).CONT
         MNOTE 9,'PROLOG MACRO MUST PRECEED EPILOG MACRO'
         MEXIT
.CONT    ANOP
&PLG     SETB  0
         AIF   ('&RC' EQ '').STOFF
&RCD     SETB  1
         AGO   .RCDX
.STOFF   ANOP
&RCD     SETB  0
.RCDX    ANOP
         AIF   ('&NAME' EQ '').RTS1
&NAME    EQU   *
.RTS1    ANOP
         AIF   (&RCD).GEN
         AGO   .GENX
.GEN     ANOP
         AIF   ('&RC' EQ 'ALL').GNALL
         AIF   ('&RC' EQ '(15)').GN15
         AIF   ('&RC' EQ '15').GN15
         AIF   ('&RC'(1,1) EQ '(').GNLMR
         AGO   .GENX
.GNLMR   ANOP
         L     11,4(13) .              GET OLD SA
         ST    &RC.,16(11) .           STORE RC
         AGO   .GENX
.GN15    ANOP
         L     11,4(13) .              GET OLD SA
         ST    15,16(11) .             STORE RC
         AGO   .GENX
.GNALL   ANOP
         L     11,4(13) .              GET OLD SA
         STM   15,1,16(11) .           STORE R0,R1,R15
.GENX    ANOP
         AIF   (&RENT).RENT
         AGO   .NORENT
.RENT    ANOP
         LR    1,13
         L     13,4(13)
         FREEMAIN R,LV=&LVNUM,A=(1)
         RETURN (14,12),T
         LTORG
         SPACE 4
****         ****
*   REENTRANT   *
****         ****
         SPACE 2
         AGO   .END
.NORENT  ANOP
         L     13,4(13)
         RETURN (14,12),T
         LTORG
         SPACE 4
         AGO   .END
.END     ANOP
* * * * * * * * * * * * * * * * * * * * * * * * * * * * * * * * * * * *
*                                                                     *
*         O S    S T A N D A R D    E X I T    L I N K A G E          *
*                                                                     *
* * * * * * * * * * * * * * * * * * * * * * * * * * * * * * * * * * *
         EJECT
         MEND
