         MACRO
&NAME    DONTSWAP
         MODESET KEY=ZERO,MODE=SUP
*        SYSEVENT DONTSWAP,ASID=(R4)
         SYSEVENT DONTSWAP,ASID=(R4)
         LR    R3,R1
         MODESET KEY=NZERO,MODE=PROB
         MEND
         MACRO
&NAME    OKSWAP
         MODESET KEY=ZERO,MODE=SUP
*        SYSEVENT OKSWAP,ASID=(R4)
         SYSEVENT OKSWAP,ASID=(R4)
         LR    R3,R1
         MODESET KEY=NZERO,MODE=PROB
         MEND
OKSWAP   PROLOG R,LV=196
         SR    R0,R0
         L     R2,16         <== CVT
         L     R2,0(R2)      <== OLD/NEW
         L     R2,12(R2)     <== OUR ASCB
         LH    R2,36(R2)     OUR ASID
         LR    R4,R2
         SL    R2,16
         LR    R0,R2
*
         OKSWAP
         LR    R15,R3
OKEXIT   EPILOG RC=(15)
         LTORG
         END
