         MACRO
&NAME    GOBCK
         GBLA  &GXZ(64)
         GBLA  &VBW
&NAME    LR    1,13
         AIF   (&GXZ(&VBW) EQ 0).G1
         L     13,4(13)
.G1      ST    15,16(13)
         AIF   (&GXZ(&VBW) EQ 0).G2
         FREEMAIN R,LV=&GXZ(&VBW),SP=0,A=(1)
.G2      RETURN (14,12)
&VBW     SETA  &VBW-1
         MEND
