PDS      TITLE 'T S O   P D S   C O M M A N D   P R O C E S S O R'
***********************************************************************
*                                                                     *
*                                                                     *
* TITLE -      P D S   -   TSO PDS PROCESSOR                          *
*                                                                     *
* FUNCTION -   PROVIDE THE TSO USER WITH THE CAPABILITY               *
*              TO MANIPULATE A PARITIONED DATA SET                    *
*              DIRECTORY AND SELECTED MEMBERS.                        *
*                                                                     *
*                                                                     *
* OPERATION -  OPERATES AS A STANDARD COMMAND PROCESSOR UNDER         *
*              TSO. ALLOCATES THE DATA SET(S) REQUESTED BY THE        *
*              USER. PROVIDES DISPLAY, RENAME, SCRATCH, AND           *
*              ALIAS FUNCTIONS FOR THE DIRECTORY ENTRIES.             *
*              PRODUCES LOAD MODULE MAPS AND HISTORY SUMMARIES.       *
*              DISPLAYS THE CONTENTS OF MEMBERS OF THE DATA SET.      *
*                                                                     *
*                                                                     *
* INPUT -      STANDARD COMMAND PROCESSOR PARAMETER LIST              *
*              POINTED TO BY REGISTER 1                               *
*                                                                     *
*                                                                     *
* OUTPUT -     NOT APPLICABLE.                                        *
*                                                                     *
*                                                                     *
* ATTRIBUTES - REENTRANT, REUSEABLE, REFRESHABLE.                     *
*                                                                     *
*                                                                     *
*                                                                     *
*                                                                     *
***********************************************************************
         EJECT
         MACRO
&NAME    SCREEM &TYPE
&NAME    SVC   236 .                    ISSUE SPNB ERASE SVC
         MEND
         SPACE 3
         MACRO
&NAME    CLEAR &FIELD
         LCLC  &L
&L       SETC  'L'''
&NAME    MVI   &FIELD,C' '
         MVC   &FIELD+1(&L&FIELD-1),&FIELD
         MEND
         SPACE 3
         MACRO
&NAME    MSG   &TEXT
         LCLA  &A
&A       SETA  K'&TEXT-2+4
&NAME    DC    0H'0',AL2(&A,0),C&TEXT
         MEND
         EJECT
         MACRO
&NAME    ENTER &TYPE,&PDL=
         GBLC  &MAIN
         AIF   ('&TYPE' NE '').A1
&MAIN    SETC  '&NAME'
&NAME    CSECT
         SAVE  (14,12),,*
         LR    BASEREG1,R15
         LA    BASEREG2,4095(,BASEREG1)
         LA    BASEREG2,1(,BASEREG2)
         USING &NAME,BASEREG1,BASEREG2
         SPACE 2
         B     IHB&SYSNDX
         DC    C'COPYRIGHT 1975 BY SECURITY PACIFIC NATIONAL BANK'
IHB&SYSNDX DS  0H
         MEXIT
.A1      AIF   ('&TYPE' NE 'VALCHECK').A2
&NAME    CSECT
         SAVE  (14,12),,*
         LR    VLDBASE,R15 .            ESTABLISH BASE REGISTER
         USING &NAME,VLDBASE
         L     WORKREG,4(,R1) .         WORK AREA ADDRESS
         LM    BASEREG1,BASEREG2,BASES .RELOAD MAIN BASE REGISTERS
         L     RPDL,0(,R1) .            PDE ADDRESS
         LA    R15,VALSAVE              VALIDITY CHECK SAVE AREA
         AGO   .SETSAVE
.A2      ANOP
         AIF   ('&TYPE' NE 'ATTNEXIT').A3
&NAME    SAVE  (14,12)
         L     WORKREG,8(,R1)
         LM    BASEREG1,BASEREG2,BASES
         LA    R15,ATTNSAVE
         AGO   .SETSAVE
.A3      ANOP
         AIF   ('&TYPE' NE 'COMMAND').A4
&NAME    CSECT
         SAVE  (14,12),,*
         LR    CMDBASE,R15 .            ESTABLISH BASE REGISTER
         USING &NAME,CMDBASE
         AIF   ('&PDL' EQ '').NOPDL
         USING &PDL,RPDL .          ESTABLISH BASE FOR PDL
.NOPDL   ANOP
         LA    R15,CMDSAVE
         AGO   .SETSAVE
.A4      ANOP
         MNOTE 8,'INVALID TYPE ''&TYPE'''
         MEXIT
.SETSAVE ANOP
         ST    R13,4(,R15)
         ST    R15,8(,R13)
         LR    R13,R15
         MEND
         EJECT
         MACRO
&NAME    EXIT  &TYPE,&LV=
         GBLC  &MAIN
         AIF   ('&NAME' EQ '').NONAME
&NAME    DS    0H
.NONAME  ANOP
         AIF   ('&LV' EQ '').A1
         LR    R2,R13         ADDR OF THIS SAVE AREA
.A1      L     R13,4(,R13)
         STM   R15,R1,16(R13) RETURN REGS 15, 0, 1
         AIF   ('&LV' EQ '').A2 NOT DYNAMIC CORE
         FREEMAIN R,LV=&LV,A=(R2)
.A2      SPACE
         RETURN (14,12),T
&MAIN    CSECT
         MEND
         SPACE 3
         MACRO $PUTGET -  OUTPUT A DATA LINE AND GET RESPONSE
&NAME   $PUTGET  &LINE,&ATTN=
         AIF   ('&NAME' EQ '').NONAME
&NAME    DS    0H
.NONAME  ANOP
         AIF   ('&LINE' EQ '(1)' OR '&LINE' EQ '(R1)').CALL
         AIF   ('&LINE'(1,1) EQ '(').R
         LA    R1,&LINE .            ADDRESS OF DATA LINE
         AGO   .CALL
.R       ANOP
         LR    R1,&LINE(1) .                ADDRESS OF DATA LINE
.CALL    ANOP
         BAL   R14,$PUTGET .            INVOKE PUTGET INTERFACE
         AIF   ('&ATTN' EQ '').NOATTN
         B     &ATTN .               EXIT IF ATTENTION OCCURRED
         AGO   .END
.NOATTN  NOP   0 .                      IGNORE ATTENTIONS
.END     MEND
         EJECT
         MACRO $PUTLINE -  OUTPUT A DATA LINE
&NAME   $PUTLINE &LINE,&ATTN=
         AIF   ('&NAME' EQ '').NONAME
&NAME    DS    0H
.NONAME  ANOP
         AIF   ('&LINE' EQ '(1)' OR '&LINE' EQ '(R1)').CALL
         AIF   ('&LINE'(1,1) EQ '(').R
         LA    R1,&LINE .            ADDRESS OF DATA LINE
         AGO   .CALL
.R       ANOP
         LR    R1,&LINE(1) .                ADDRESS OF DATA LINE
.CALL    ANOP
         BAL   R14,$PUTLINE .           INVOKE PUTLINE INTERFACE
         AIF   ('&ATTN' EQ '').NOATTN
         B     &ATTN .               EXIT IF ATTENTION OCCURRED
         AGO   .END
.NOATTN  NOP   0 .                      IGNORE ATTENTIONS
.END     MEND
         SPACE 2
         MACRO MESSAGE - OUTPUT AN ERROR/STATUS MESSAGE
&NAME    MESSAGE &MSG1,&MSG2
         AIF   ('&MSG1' NE '').MSG1OK
         MNOTE 12,'PRIMARY MESSAGE ADDRESS NOT SPECIFIED'
         AGO   .END
.MSG1OK  ANOP
         AIF   ('&NAME' EQ '').NONAME
&NAME    DS    0H
.NONAME  ANOP
         AIF   ('&MSG1' EQ '(1)' OR '&MSG1' EQ '(R1)').MSG2
         AIF   ('&MSG1'(1,1) EQ '(').RMSG1
         LA    R1,&MSG1 .               ADDRESS OF PRIMARY MESSAGE
         AGO   .MSG2
.RMSG1   ANOP
         LR    R1,&MSG1(1) .            ADDRESS OF PRIMARY MESSAGE
.MSG2    ANOP
         AIF   ('&MSG2' EQ '').NOMSG2 NO SECONDARY MESSAGE
         AIF   ('&MSG2' EQ '(0)' OR '&MSG2' EQ '(R0)').CALL
         AIF   ('&MSG2'(1,1) EQ '(').RMSG2
         LA    R0,&MSG2 .               ADDRESS OF SECONDARY MESSAGE
         AGO   .CALL
.RMSG2   ANOP
         LR    R0,&MSG2(1) .            ADDRESS OF SECONDARY MESSAGE
.CALL    ANOP
         BAL   R14,MESSAGE .            SEND MESSAGES
         AGO   .END
.NOMSG2  ANOP
         BAL   R14,MESSAGE0 .           SEND PRIMARY MESSAGE
.END     MEND
         EJECT
R0       EQU   0
R1       EQU   1
R2       EQU   2
R3       EQU   3
R4       EQU   4
R5       EQU   5
R6       EQU   6
R7       EQU   7
RPDL     EQU   8
WORKREG  EQU   9
BASEREG1 EQU   10
BASEREG2 EQU   11
VLDBASE  EQU   12
CMDBASE  EQU   12
R13      EQU   13
R14      EQU   14
R15      EQU   15
         SPACE 5
PDS      ENTER
         LR    R2,R1          SAVE ADDR OF CPPL
         SPACE
         L     R3,CORESIZE
         GETMAIN R,LV=(R3)
         SPACE 2
         LR    WORKREG,R1    ADDR OF WORK AREA
         USING WORKAREA,WORKREG
         EJECT
*
*        CLEAR WORK AREA
*
         SPACE 2
         LA    R14,0(,R3)     LENGTH OF AREA
         BCTR  R14,0          EXECUTED LENGTH
         LA    R15,255        LOOP FACTOR
LOOP01   CR    R14,R15        LAST PASS?
         BNH   LOOP00         YES
CLEAR1   XC    0(0,R1),0(R1)
         EX    R15,CLEAR1
         LA    R1,256(,R1)
         SR    R14,R15
         BCT   R14,LOOP01     IF MORE TO CLEAR
         SPACE
LOOP00   EX    R14,CLEAR1     CLEAR LAST AREA
         SPACE 2
         STM   BASEREG1,BASEREG2,BASES SAVE BASE REGISTERS
         SPACE 3
*
*        INITIALIZE WORK AREA
*
         SPACE 2
         MVC   BLDLLIST,BLDLPARM
         SPACE
         GTSIZE ,             GET TERMINAL LINE SIZE
         STH   R1,LINESIZE
         SPACE 3
         LA    R0,IOECB                 ECB ADDRESS
         ST    R0,IOBECB                SET INTO IOB
         LA    R0,INDCB                 DCB ADDRESSS
         ST    R0,IOBDCB                SET INTO DCB
         LA    R0,CCWS                  CCW CHAIN ADDRESS
         ST    R0,IOBCCW                SET INTO IOB
         MVI   IOBFLAG,X'42'            SET IOB FLAGS
         EJECT
*
*        ESTABLISH STAE EXIT
*
         SPACE 3
         MVC   STAEPARM(LSTAE),STAE MOVE PATTERN STAE TO WORK AREA
         STAE  STAEEXIT,CT,PARAM=WORKAREA,MF=(E,STAEPARM) ISSUE STAE
         SPACE
         LA    R15,MAINSAVE
         ST    R15,8(,R13)
         ST    R13,4(,R15)
         LR    R13,R15
         ST    R13,ADDRSAVE             ADDRESS OF FIRST SAVE AREA
         EJECT
*
*        LOAD TSO SERVICE ROUTINES
*
         SPACE 3
         USING CPPL,R2                  BASE FOR COMMAND PARM LIST
         MVC   ADDRUPT,CPPLUPT          ADDR OF USER PROFILE TABLE
         MVC   ADDRPSCB,CPPLPSCB        ADDR OF P S C B
         MVC   ADDRECT,CPPLECT          ADDR OF ENVIROMENT TABLE
         MVC   ADDRCBUF,CPPLCBUF        ADDR OF FIRST CMD BUFFER
         ST    R2,CPPLADDR              SAVE CPPL ADDRESS
         DROP  R2
         SPACE 3
         LA    R1,PARSELST
         USING PPL,R1
         MVC   PPLUPT,ADDRUPT           SET ADDRESSES OF
         MVC   PPLECT,ADDRECT           CONTROL BLOCKS IN
         ST    WORKREG,PPLUWA           PARSE PARAMETER LIST
         LA    R0,ATTNECB
         ST    R0,PPLECB
         SPACE 2
         LOAD  EPLOC=IKJPUTL            PUTLINE SERVICE ROUTINE
         ST    R0,ADDRPUTL
         LOAD  EPLOC=IKJGETL            GETLINE SERVICE ROUTINE
         ST    R0,ADDRGETL
         SPACE 2
         LOAD  EPLOC=IKJPTGT            PUTGET SERVICE ROUTINE
         ST    R0,ADDRPTGT
         SPACE 2
         LOAD  EPLOC=IKJSCAN            COMMAND SCAN SERVICE ROUTINE
         ST    R0,ADDRSCAN
         EJECT
*
*
*        SET UP TO INVOKE PARSE TO GET DATA SET NAME
*
*
         SPACE 2
         STAX  ,
         L     R1,MAINPCL               ADDRESS OF PCL FOR DATASET NAME
         BAL   R14,GOPARSE              GET THE DATA SET NAME
         B     EXIT12                   ERROR EXIT
         SPACE 2
         XC    ADDRCBUF,ADDRCBUF        NO COMMAND BUFFER LEFT
         SPACE 2
RESTART  DS    0H
         BAL   R14,ALLOCATE             ALLOCATE THE DATA SET
         B     EXIT12                   IF ALLOCATION UNSUCCESSFUL
         SPACE 2
         NI    FLAGS,255-FRESTART
         MVC   INDCB(LEXCPDCB),EXCPDCB  MOVE PATTERN DCBS TO
         MVC   STOWDCB(LSAMDCB),SAMDCB  WORK AREA
         MVC   DCBDDNAM-IHADCB+INDCB,DDNAME
         MVC   DCBDDNAM-IHADCB+STOWDCB,DDNAME
         SPACE
         XC    OPENLIST(8),OPENLIST
         MVI   OPENLIST,X'80'           SET E-O LIST INDICATOR
         LA    R1,EXLSTX
         ST    R1,0(,R13)
         MVC   DCBEXLST+1-IHADCB+INDCB(3),1(R13)
         LA    R1,JFCB
         ST    R1,EXLSTX
         MVI   EXLSTX,X'87'
         RDJFCB (INDCB,INPUT),MF=(E,OPENLIST)
         XC    OPENLIST(8),OPENLIST     RESET MF=L AREA
         MVI   OPENLIST+4,X'80'         FOR 2 DCBS
         OPEN  (INDCB,INPUT,STOWDCB,INPUT),MF=(E,OPENLIST)
         MVI   OPENLIST,X'80'
         CLOSE (STOWDCB),MF=(E,OPENLIST)
         SPACE
         TM    INDCB+48,X'10' DID DCB OPEN?
         BO    NEWCMD                   CONTINUE IF YES
         SPACE 2
         MESSAGE MSGNOPEN               NO, ISSUE MESSAGE AND EXIT
         B     EXIT12                   STAGE DOOR RIGHT
         EJECT
*
*
*        DISPLAY PROGRAM OPTIONS FOR USER
*
*
         SPACE 1
LISTOPTS DS    0H
         SPACE
PUTOPTNS DS    0H
         L     R2,VOPTNTBL
         SPACE
NEXTOPTN DS    0H
        $PUTLINE (R2)                   DISPLAY OPTION LINE
         SPACE
         MVC   0(2,R13),0(R2)
         LA    R0,1
         LH    R1,0(,R13)               ADJUST TO NEXT OPTION
         AR    R1,R0
         OR    R1,R0
         XR    R1,R0
         AR    R2,R1
         CLI   0(R2),X'FF'              LAST ONE?
         BNE   NEXTOPTN                 NO
         SPACE 2
NEWCMD   DS    0H
         MVI   ATTNECB,0
         NI    FLAGS,255-FMEMBER1-FMEMBER2-FATTR
         NI    FLAGS+1,255-FATTN
         MVI   FLAGS+2,0
         XC    ATTRYES,ATTRYES
         XC    ATTRNO,ATTRNO
         SPACE 2
         STAX  ,                           NULLIFY ATTN EXITS
         SPACE 2
         TM    FLAGS,FCMD               COMMAND BUFFER AVAILABLE?
         BO    HAVECMD                  YES
         SPACE
        $PUTGET MSGOP,ATTN=EXIT8
         SPACE
         EJECT
*
*
*        SET UP FOR SUBCOMMAND SCAN
*
*
         SPACE 2
HAVECMD  DS    0H
         NI    FLAGS,255-FCMD
         SPACE 2
         LA    R1,PARMLIST
         USING CSPL,R1
         SPACE
         MVC   CSPLUPT,ADDRUPT
         MVC   CSPLECT,ADDRECT
         LA    R0,ATTNECB
         ST    R0,CSPLECB
         MVI   ATTNECB,0
         LA    R0,SCANANSR
         ST    R0,CSPLOA
         XC    SCANANSR,SCANANSR
         LA    R0,R14SAVE
         ST    R0,CSPLFLG
         XC    R14SAVE,R14SAVE
         SPACE
         MVC   CSPLCBUF,ADDRCBUF
         SPACE
         L     R15,ADDRSCAN
         BALR  R14,R15                  INVOKE COMMAND SCAN
         SPACE
         LA    R1,SCANANSR              ADDR OF ANSWER AREA
         USING CSOA,R1
         SPACE
         TM    CSOAFLG,CSOANOC          EMPTY BUFFER?
         BO    NEWCMD                   YES, STILL NEED COMMAND
         SPACE
         TM    CSOAFLG,CSOAEXEC         IMPLICIT EXEC?
         BZ    HAVECMD1                 YES, DON'T INVOKE EXEC
         SPACE 1
         L     R2,ADDRCBUF
         XC    2(2,R2),2(R2)            CLEAR OFFSET
         SPACE
EXEC     L     R2,ADDRCBUF
         L     R1,CPPLADDR
         ST    R2,0(,R1)
         SPACE 1
         LINK  EP=EXEC
         SPACE
         B     NEWCMD
         SPACE
HAVECMD1 DS    0H
         TM    CSOAFLG,CSOAVWP+CSOAVNP  VALID COMMAND?
         BNZ   CHECKCMD                 YES
         SPACE
         MESSAGE MSGINVLD               INVALID COMMAND
         B     NEWCMD
         EJECT
CHECKCMD DS    0H
         OI    FLAGS,FOPTIONS
         TM    CSOAFLG,CSOAVWP          OPERAND PRESENT?
         BO    *+8                      YES
         XI    FLAGS,FOPTIONS           NO
         SPACE
         L     R2,CSOACNM               ADDR OF COMMAND NAME
         LH    R3,CSOALNM               LENGTH OF NAME
         BCTR  R3,0
         DROP  R1
         SPACE
         MVC   SUBNAME(0),0(R2)
         EX    R3,*-6                   SAVE SUB COMMAND NAME
         SPACE
         L     R1,VCMDTAB
         SR    R15,R15                  SET UP FOR COMMAND SCAN
         SR    R14,R14
         SPACE 2
* COMMAND SCAN ROUTINE
*    NOTE - IN THE CASE OF A POTENTIALLY AMBIGUOUS ENTRY
*           (E.G. ''A'') THE FIRST MATCH IN THE CMDTABLE
*           IS USED
         SPACE
CMDSCAN  IC    R15,8(,R1)               GET CMD LENGTH
         CR    R15,R3                   CHECK CMD LENGTH
         BNH   NEXTCMD
         SPACE
         CLC   0(0,R1),0(R2)
         EX    R3,*-6                   CHECK COMMAND NAME
         BE    CMDVALID                 MATCH, MUST BE COMMAND
         SPACE
NEXTCMD  DS    0H
         LA    R1,16(,R1)               NEXT ENTRY IN TABLE
         CLI   0(R1),X'FF'              END OF TABLE?
         BNE   CMDSCAN                  NO, CONTINUE
         SPACE
         LA    R1,MSGUNKN               NOT A VALID COMMAND
         SPACE
CMDERROR DS    0H
         MESSAGE (R1)
         B     NEWCMD
         SPACE
CMDVALID DS    0H
         LR    R14,R1                   SAVE CMD ENTRY
         MVC   ADDRPCL,12(R14)          SAVE PCL ADDR
         L     R1,8(,R14)               GET COMMAND PROCESSOR ADDRESS
         ST    R1,ADDRCMD               SAVE IT
         SPACE 2
         TM    ADDRPCL,X'40'            IGNORE OPTIONS?
         BO    CALLCMD                  YES
         SPACE
         TM    ADDRPCL,X'80'            OPERANDS REQUIRED?
         BZ    CMDPARSE                 YES
         TM    FLAGS,FOPTIONS           NO, WERE ANY SPECIFIED?
         BZ    CALLCMD
         SPACE 2
CMDPARSE DS    0H
         L     R1,ADDRPCL
         BAL   R14,GOPARSE              GET THE COMMAND OPERANDS
         B     NEWCMD                   IF PARSE NOT SUCCESSFUL
         EJECT
CALLCMD  DS    0H
         XC    PARMLIST(20),PARMLIST
         SPACE 2
         XC    PARMLIST,PARMLIST
         STAX  ATTNEXIT,USADDR=(WORKREG),REPLACE=YES,IBUF=0,OBUF=0,    X
               MF=(E,PARMLIST)
         SPACE 2
         L     R15,ADDRCMD
         L     RPDL,ADDRPDL             ADDRESS OF PARSE DESC LIST
         BALR  R14,R15                  LINK TO COMMAND PROCESSOR
         SPACE
         BAL   R14,FREEPDL              CLEAN UP AFTER COMMAND
         SPACE 3
         B     NEWCMD
         EJECT
*
*
*        TERMINAL ATTENTION EXIT ROUTINE
*
*
         SPACE 3
ATTNEXIT ENTER ATTNEXIT
         TM    FLAGS+1,FATTN  ALLOW ATTENTIONS?
         BZ    EXITATTN       NO
         SPACE 2
        $PUTGET MSGOP                   GET RESPONSE TO ATTN
         SPACE
         TM    FLAGS,FNULL    NULL LINE ENTERED?
         BO    EXITATTN       YES, JUST LEAVE
         SPACE
         OI    FLAGS,FCMD     INDICATE COMMAND AVAILABLE
         SPACE
         POST  ATTNECB
         SPACE
EXITATTN DS    0H
         SR    R15,R15
         EXIT
         EJECT
*
*
*        LIST SUBCOMMAND
*
*
         SPACE 3
LIST     ENTER COMMAND,PDL=PDLLIST      ESTABLISH SUBCOMMAND
         TM    FLAGS,FLOADMOD           THIS A LOAD MODULE LIBRARY?
         LA    R1,MSGNLIST              MSG IF YES
         BO    LISTERR                  YES, ERROR
         SPACE 2
         MVC   DIRNAME,MEMBER1          LOCATE MEMBER TO BE LISTED
         BLDL  INDCB,BLDLLIST
         B     *+4(R15)
         SPACE 2
         B     LIST1                    00 - SUCCESSFUL
         B     LISTNONE                 04 - MEMBER NOT FOUND
         B     LISTDERR                 08 - I/O ERROR IN DIRECTORY
         SPACE 2
LIST1    DS    0H
         SPACE 2
         OI    FLAGS+1,FATTN            INDICATE ATTENTIONS ACCEPTED
         EJECT
*
*
*        INITIALIZE CHANNEL PROGRAM TO READ SELECTED MEMBER
*
*
*        CCW CHAIN USED IS -      SEARCH ID    -----+
*                                 TIC           ----+
*                                 READ COUNT
*                                 READ DATA
*
         SPACE 2
         XC    CCWS(LCCWS),CCWS         CLEAR CCW AREA
         SPACE 2
         LA    R0,IOBSEEK               ADDRESS OF IOB SEEK
         LA    R1,CCWS                  FIRST CCW - SEARCH CCW
         L     R2,BUFFADDR              ADDRESS OF BUFFER
         ST    R0,CCWS                  SEEK ADDRESS IN CCW1
         ST    R1,CCWS+8                TIC ADDRESS IN CCW2
         ST    R0,CCWS+16               READ COUNT ADDR IN CCW3
         ST    R2,CCWS+24               BUFFER ADDR IN CCW4
         LH    R3,BUFFSIZE              LENGTH OF BUFFER
         STH   R3,CCWS+30               SET IN CCW4
         SPACE 2
         OC    CCWS(LLISTCCW),LISTCCWS  COPY PATTERN CCW CHAIN
         SPACE 2
*
*        CONVERT TTR OF START OF MEMBER TO CCHHR FORMAT
*
         SPACE 2
         STM   14,12,12(13)             SAVE REGISTERS FOR RETURN
         LA    R2,IOBSEEK-3             RETURN CCHHR IN IOBSEEK
         L     R1,INDCB+(DCBDEBAD-IHADCB) DEB ADDRESS
         MVI   DIRTTR+3,0               CLEAR TTR CONCATENTION FIELD
         L     R0,DIRTTR                GET TTR0 OF MEMBER
         LA    R15,X'100'               GET TTR0 OF PREVIOUS RECORD
         SLR   R0,R15
         L     R15,CVT
         L     R15,CVTPCNVT(,R15)       ADDRESS OF TTR-CCHHR CONVERT
         LR    R3,R13                   SAVE ADDRESS OF SAVE AREA
         BALR  R14,R15
         LR    R13,R3                   RESTORE SAVE AREA ADDRESS
         LM    14,12,12(13)             RESTORE REGISTERS
         EJECT
LIST2    DS    0H
         MVI   IOECB,0
         EXCP  IOB                      READ NEXT RECORD
         WAIT  ECB=IOECB
         MVI   DCBIFLGS-IHADCB+INDCB,0  CLEAR I/O STATUS FLAGS
         SPACE 2
         TM    IOBCSW+3,X'01'           END-OF-FILE?
         BO    LISTEND                  YES
         SPACE 2
         CLI   IOECB,X'42'              OUT OF EXTENT?
         BNE   LIST3                    NO, CHECK STATUS
         BAL   R14,NEWEXTNT             YES, ADJUST FOR NEW EXTENT
         MVI   IOBSEEK+4,0              CORRECT TO RECORD 0
         B     LIST2                    THEN RE-READ RECORD
         SPACE
LIST3    DS    0H
         CLI   IOECB,X'7F'              SUCCESSFUL?
         LA    R1,MSGLISTI              ERROR MESSAGE FOR I/O ERROR
         BNE   LISTERR                  NO, I/O ERROR
         SPACE 2
LIST5    DS    0H
         LH    R3,BUFFSIZE              MAXIMUM RECORD LENGTH
         SH    R3,IOBCSW+5              SUBTRACT RESIDUAL COUNT
         L     R4,BUFFADDR              START OF BUFFER
         AR    R3,R4                    ADDRESS OF END OF BUFFER
         SPACE 2
         TM    DCBRECFM-IHADCB+INDCB,X'40' IS FILE VARIABLE FORMAT?
         LH    R2,LRECL                 GET RECORD LENGTH IF NOT
         LA    R5,LISTFIX               FIXED LENGTH RECORD PROCESSOR
         BZ    LIST6                    NO, FIXED FORMAT
         SPACE 2
         MVC   0(2,R13),0(R4)           GET BLOCK LENGTH
         LH    R3,0(,R13)
         AR    R3,R4                    END OF VARIABLE-LENGTH BLOCK
         LA    R4,4(,R4)                START OF RECORD ENTRIES
         LA    R5,LISTVAR               VARIABLE LEN RECORD PROCESSOR
         SPACE 3
LIST6    DS    0H
         BCTR  R3,0                     SET END OF BUFFER ADDRESS
         BR    R5                       PROCESS FIRST RECORD
         EJECT
LISTVAR  DS    0H
         MVC   0(2,R13),0(R4)           GET LENGTH OF VARIABLE RECORD
         LA    R4,4(,R4)                SKIP OVER HEADER
         LH    R2,0(,R13)               GET LOGICAL RECORD LENGTH
         LA    R0,4
         SR    R2,R0                    SUBTRACT HEADER LENGTH
         BP    LISTFIX                  CONTINUE IF RECORD EXISTS
         SPACE
         SR    R2,R2
         B     LIST7
         SPACE 2
LISTFIX  DS    0H
         TM    DCBRECFM-IHADCB+INDCB,X'06' SPECIAL CONTROL CHARACTERS?
         BZ    LIST8                    NO
         LA    R4,1(,R4)                YES, SKIP CARRIAGE CONTROL
         BCT   R2,LIST8
         SPACE 2
LIST7    DS    0H
         BXLE  R4,R2,0(R5)              SKIP TO NEXT RECORD
         B     LIST2                    IF END OF BLOCK
         SPACE 3
LIST8    DS    0H
         LR    R1,R2                    LENGTH OF DATA AREA
         BCTR  R1,0                     DECREMENT RECORD LEN FOR MOVE
         MVC   MSGTEXT1+4(0),0(R4)
         EX    R1,*-6                   MOVE RECORD TO LINE BUFFER
         LA    R1,5(,R1)                LINE LENGTH PLUS HEADER FIELD
         SLL   R1,16
         ST    R1,MSGTEXT1              CREATE OUTPUT LINE HEADER
         LA    R1,MSGTEXT1
LISTIT   DS    0H
        $PUTLINE MSGTEXT1,ATTN=LISTEND  OUTPUT THE NEXT LINE
         SPACE 1
         B     LIST7                    GET NEXT RECORD
         EJECT
LISTERR  DS    0H                       ERROR DURING PROCESSING
         MESSAGE (R1)                   ISSUE ONLY PRIMARY MESSAGE
         B     LISTEND                  EXIT
         SPACE 2
LISTNONE DS    0H
         MESSAGE MSGNONE                ERROR - MEMBER DOES NOT EXIST
         B     LISTEND
         SPACE 2
LISTDERR DS    0H
         MESSAGE MSGIOERR               I/O ERROR IN DIRECTORY
         SPACE 3
LISTEND  DS    0H
         EXIT  COMMAND                  EXIT FROM SUBCOMMAND
         EJECT
*
*
*              HELP  INVOCATION SUBCOMMAND
*
*
         SPACE 3
HELP     ENTER COMMAND     *** NO PDL IS USED FOR THIS SUBCOMMAND ***
         SPACE 2
         L     R2,ADDRCBUF              GET INPUT BUFFER ADDR
         L     R1,CPPLADDR
         USING CPPL,R1
         ST    R2,CPPLCBUF              SET CMD ADDRESS
         DROP  R1
         SPACE
HELPLINK LINK  EP=HELP                  INVOKE THE HELP CMD PROCESSOR
         SPACE
         EXIT COMMAND
         EJECT
*
*
*              USAGE STATISTICS SUBCOMMAND
*
*
         SPACE 3
USAGE    ENTER COMMAND     *** NO PDL IS USED FOR THIS SUBCOMMAND ***
         SPACE 2
         OI    FLAGS+1,F1STREAD         INDICATE FIRST ENTRY
         OI    FLAGS+2,FDIRSCAN         ALSO DIRECTORY SCAN REQUEST
         SPACE 2
         BAL   R14,READDIR              SCAN THROUGH THE DIRECTORY
         B     USE1                     IF END OF DIRECTORY
         B     USE2                     IF I/O ERROR
         B     USE3                     IF PREMATURE EXIT
         SPACE 2
USE1     DS    0H
         LA    R2,MSGUSEB               MSG - TOTAL BLOCKS ALLOCATED
         LH    R1,TOTBLOCK              GET COUNTER
         BAL   R4,USEFMT                FORMAT MESSAGE
         SPACE
         LA    R2,MSGUSED               MSG - TOTAL BLOCKS USED
         LH    R1,TOTUSED               GET COUNTER
         BAL   R4,USEFMT
         SPACE
         LA    R2,MSGUSER               MSG - TOTAL MEMBERS
         LH    R1,TOTMEMR               GET COUNTER
         AH    R1,TOTMEMA
         BAL   R4,USEFMT
         SPACE
         LA    R2,MSGUSEA               MSG - TOTAL ALIASES
         LH    R1,TOTMEMA
         LTR   R1,R1                    ANY ALIASES?
         BZ    USETOTAL                 NO
         BAL   R4,USEFMT
         SPACE 2
USETOTAL DS    0H
         L     R1,DCBDEBAD-IHADCB+INDCB GET DEB ADDRESS
         SR    R14,R14
         SR    R15,R15
         SPACE 2
*
*        CALCULATE TOTAL SIZE OF DATA SET AND UNUSED SPACE
*
         SPACE 2
         IC    R14,DEBXTNT#(,R1)        GET NUMBER OF EXTENTS IN D.S
         STH   R14,DSNEXTNT             SAVE VALUE
         LA    R15,DEBAMLNG             GET SIZE OF EACH EXTENT
         SR    R0,R0
USEXTNT  DS    0H
         AH    R0,DEBEXTNT+14(,R1)      ADD NUMBER OF TRACKS IN EXTENT
         AR    R1,R15                   TO TOTAL AND JUMP TO NEW EXTENT
         BCT   R14,USEXTNT              IF MORE EXTENTS
         SPACE
         STH   R0,DSNTOTAL              SAVE TOTAL D.S. SIZE IN TRACKS
         SPACE 2
         L     R1,CVT                   GET CVT ADDRESS
         L     R1,0(,R1)
         L     R1,4(,R1)
         L     R1,12(,R1)               ADDRESS OF TIOT
         AH    R1,DCBTIOT-IHADCB+INDCB  ADDRESS OF TIOT ENTRY
         L     R1,16(,R1)               ADDRESS OF UCB
         MVC   VOLUME,UCBVOLI(R1)       EXTRACT VOLUME SERIAL
         SPACE 2
         TM    FLAGS+1,FQUOTE IS DATASET QUOTED ?
         BO    USE1A          YES, BRANCH
         LA    R15,DSNAME1    NO, POINT TO 'TO' AREA
         L     R1,ADDRPSCB    GET PSCB ADDRESS
         SR    R14,R14        CLEAR R14
         IC    R14,7(R1)      GET USERID LEN
         BCTR  R14,0
         EX    R14,DSNMVE1    MOVE USERID
         AR    R15,R14        ADD TO 'TO' ADDR
         MVI   0(R15),C'.'    MOVE IN A PERIOD
         LA    R15,1(R15)     BUMP POINTER
         LA    R1,44          GET MAX LENGTH
         LA    R14,1(R14)     BUMP LENGTH
         SR    R1,R14         GET WHAT IS LEFT
         EX    R1,DSNMVE2     MOVE REST OF DSN
         B     USE1B
DSNMVE1  MVC   0(0,R15),0(R15) MOVE USERID
DSNMVE2  MVC   0(0,R15),DSNAME
USE1A    MVC   DSNAME1(44),DSNAME
USE1B    EQU   *
         L     R14,OBTAIN               GET OBTAIN FLAGS
         LA    R15,DSNAME               ADDRESS OF FULL DATA SET NAME
         LA    R0,VOLUME                ADDRESS OF VOLUME SERIAL
         LA    R1,DSCB                  ADDRESS OF DSCB/WORKAREA
         STM   R14,R1,CAMLST            SAVE FOR OBTAIN
         SPACE
         SR    R0,R0
         OBTAIN CAMLST                  GET DSCB
         LTR   R15,R15
         BNZ   USENDSCB
         SPACE 2
         LH    R1,DS1LSTAR+DSCB-44      GET TT OF LAST TRACK
         LA    R1,1(,R1)                JUMP FOR COMPUTATION
         STH   R1,DSNTUSED
         SPACE 3
         LH    R1,DSNTOTAL              TOTAL SPACE USED
         LA    R2,MSGUSESI              MSG FOR TOTAL SPACE
         BAL   R4,USEFMT
         SPACE
         LH    R1,DSNTUSED              TOTAL FREE SPACE
         LA    R2,MSGUSEMP
         BAL   R4,USEFMT
         SPACE
         LH    R1,DSNEXTNT              TOTAL EXTENTS
         LA    R2,MSGUSEXT
         BAL   R4,USEFMT
         SPACE 1
         MVC   MSGTEXT1(26),MSGUSEV     MESSAGE PATTERN
         MVC   MSGTEXT1+19(6),VOLUME      VOLID
        $PUTLINE MSGTEXT1
         SPACE
         B     USEEXIT
         SPACE 2
USENDSCB DS    0H
         MESSAGE MSGNDSCB
         B     USEEXIT
         SPACE 3
USEFMT   DS    0H
         CVD   R1,DOUBLE                CONVERT COUNTER TO DECIMAL
         LA    R14,10
         SR    R15,R15
USEFMT1  DS    0H
         SR    R0,R0
         DR    R0,R14                   COMPUTE NUMBER OF SIGIF. DIGITS
         LTR   R1,R1                    RESIDUAL FACTOR ZERO?
         LA    R15,1(,R15)
         BNZ   USEFMT1                  NO, KEEP GOING
         BCTR  R15,0                    YES, REDUCE FOR EXECUTE
         LR    R1,R15