         MACRO
&NAME    ENDALL &CODE=
         GBLB  &TIME
         GBLB  &SAVRENT
         GBLC  &SAVNDX
         LCLA  &LEN
         LCLC  &REG
         AIF   ('&CODE' GT '4095').INVRET
&NAME    DS    0H
         AIF   (K'&CODE LE 0).CHKRENT
         AIF   ('&CODE'(1,1) NE '(').CHKRENT
         AIF   ('&CODE' EQ '(13)' OR '&CODE' EQ '(14)').INVREG
         AIF   ('&CODE' EQ '(0)' OR '&CODE' EQ '(1)').INVREG
         AIF   ('&CODE' NE '(15)').CHKRENT
         LR    2,15               SAVE REG 15 RETURN CODE
.CHKRENT AIF   (NOT &SAVRENT).NOTRENT
&SAVRENT SETB  0
         LR    1,13               LOAD SAVE AREA ADDRESS
         L     13,4(0,13)         RE-LOAD REGISTER 13
         FREEMAIN R,LV=4096,A=(1) FREE SAVE AREA STORAGE
         AGO   .RENT
.NOTRENT ANOP
         AIF   (NOT &TIME).NOSAVE
&TIME    SETB  0
         L     13,SAVE&SAVNDX+4   RE-LOAD REGISTER 13
.RENT    ANOP
         AIF   ('&CODE' EQ '').COND1
         AIF   ('&CODE' NE '(15)').CHKREG
         LR    15,2               GET RETURN CODE BACK FROM R2
         AGO   .ENDIT
.CHKREG  AIF   ('&CODE'(1,1) NE '(').NOTREG
&LEN     SETA  K'&CODE-2
&REG     SETC  '&CODE'(2,&LEN)
         LR    15,&REG            GET RETURN CODE
         AGO   .ENDIT
.NOTREG  ANOP
         LA    15,&CODE           LOAD CODE TO REG 15
         AGO   .ENDIT
.INVRET  MNOTE 12,'***** RETURN CODE PASSED GREATER THAN 4095 *****'
         MEXIT
.NOSAVE  MNOTE 12,'***** SAVEALL NOT ISSUED PRIOR TO ENDALL *****'
         MEXIT
.INVREG  MNOTE 12,'***** INVALID REGISTER USED FOR RETURN CODE "&CODE"'
         MEXIT
.COND1   LA    15,0               LOAD ZERO (NO CODE) TO REG 15
.ENDIT   ANOP
         RETURN     (14,12),T,RC=(15)
         MEND
