         MACRO
&NAME    QSTOP
&NAME    L     R13,4(R13)     LOAD NEXT LOWER SAVE AREA SET
         LM    R14,R12,12(R13) STANDARD REGISTER RESTORE
         BR    R14            RETURN TO CALLER
         MEND
