         MACRO
&NAME    SETUP &BASE2=
&NAME    CSECT ,                            BEGIN CSECT
         USING &NAME,R15                    TEMP. ADDRESS.
         B     S&SYSNDX
         DC    17XL4'FFFFFFFF'              SAVEAREA
         DC    CL8'&NAME'                  'EYE CATCHER'
         DC    CL8'&SYSDATE',CL6'&SYSTIME'  AUDIT TRAIL
         AIF   ('&BASE2' EQ '').HNDBAS0
B&SYSNDX DC    A(&NAME+X'1000')
.HNDBAS0 ANOP
S&SYSNDX DS    0H                           FOR COMPUTATION
         STM   R14,R12,12(R13)              STORE HIS REGS.
         LR    R2,R13                       SAVE ADDRESS OF SA.
         LR    R13,R15                      SET UP NORMAL BASE
         AIF   ('&BASE2' NE '').HNDBAS1
         USING &NAME,R13                    NORMAL ADDRESS.
         AGO   .HNDBAS2
.HNDBAS1 ANOP
         USING &NAME,R13,&BASE2             OBTAIN ADDRESSIBILITY
         L     &BASE2,B&SYSNDX              LOAD SECOND BASE
.HNDBAS2 ANOP
         XR    R15,R15
         DROP  R15                          DON'T NEED THIS
         ST    R2,4(R13)                    BACKWARD POINTER
         ST    R13,8(R2)                    FORWARD POINTER
         MEND
