         MACRO
&NAME    XAUTHOFF
.**********************************************************************
.**********************************************************************
.***     EXTENDED AUTHORIZATION FOR CALLER                          ***
.**********************************************************************
.**********************************************************************
&NAME    DS    0H                           ENTRY
         L     R0,=C'OFF '                  LOAD COMMAND CODE
         SVC   243                          ISSUE SVC
         MEND
