         MACRO
&NAME    XAUTHON
.**********************************************************************
.**********************************************************************
.***     EXTENDED AUTHORIZATION FOR CALLER                          ***
.**********************************************************************
.**********************************************************************
&NAME    DS    0H                           ENTRY
         L     R0,=F'48420038'              LOAD COMMAND CODE
         SVC   250                          ISSUE SVC
         MEND
