         MACRO
&NAME    XAUTHOFF
.**********************************************************************
.**********************************************************************
.***     EXTENDED AUTHORIZATION FOR CALLER                          ***
.**********************************************************************
.**********************************************************************
&NAME    DS    0H                           ENTRY
         L     R0,=F'65197254'              LOAD COMMAND CODE
         SVC   250                          ISSUE SVC
         MEND
