         MACRO
&NAME    XAUTHON
.**********************************************************************
.**********************************************************************
.***     EXTENDED AUTHORIZATION FOR CALLER                          ***
.**********************************************************************
.**********************************************************************
&NAME    DS    0H                           ENTRY
         L     R0,=C'ON  '                  LOAD COMMAND CODE
         SVC   243                          ISSUE SVC
         MEND
