         MACRO
&NAME    XNOSWAP
.**********************************************************************
.**********************************************************************
.***     EXTENDED DONTSWAP FOR CALLER                               ***
.**********************************************************************
.**********************************************************************
&NAME    DS    0H                           ENTRY
         L     R0,=F'98751686'              LOAD COMMAND CODE
         SVC   250                          ISSUE SVC
         MEND
