         MACRO
&NAME    XOKSWAP
.**********************************************************************
.**********************************************************************
.***     EXTENDED OKSWAP FOR CALLER                                 ***
.**********************************************************************
.**********************************************************************
&NAME    DS    0H                           ENTRY
         L     R0,=F'115528902'             LOAD COMMAND CODE
         SVC   250                          ISSUE SVC
         MEND
