         MACRO
&NAME    XPFIX
.**********************************************************************
.**********************************************************************
.***     EXTENDED PAGEFIX FOR CALLER                                ***
.**********************************************************************
.**********************************************************************
**** AT ENTRY - R1  POINTS TO BEGINNING OF AREA                     ***
****            R15 POINTS TO END OF AREA                           ***
&NAME    DS    0H                           ENTRY
         L     R0,=F'13227480'              LOAD COMMAND CODE
         SVC   250                          ISSUE SVC
         MEND
