         MACRO
&NAME    DESSBOX                                                       +
               &S1=(14,04,13,01,02,15,11,08,03,10,06,12,05,09,00,07,   +
               00,15,07,04,14,02,13,01,10,06,12,11,09,05,03,08,        +
               04,01,14,08,13,06,02,11,15,12,09,07,03,10,05,00,        +
               15,12,08,02,04,09,01,07,05,11,03,14,10,00,06,13),       +
               &S2=(15,01,08,14,06,11,03,04,09,07,02,13,12,00,05,10,   +
               03,13,04,07,15,02,08,14,12,00,01,10,06,09,11,05,        +
               00,14,07,11,10,04,13,01,05,08,12,06,09,03,02,15,        +
               13,08,10,01,03,15,04,02,11,06,07,12,00,05,14,09),       +
               &S3=(10,00,09,14,06,03,15,05,01,13,12,07,11,04,02,08,   +
               13,07,00,09,03,04,06,10,02,08,05,14,12,11,15,01,        +
               13,06,04,09,08,15,03,00,11,01,02,12,05,10,14,07,        +
               01,10,13,00,06,09,08,07,04,15,14,03,11,05,02,12),       +
               &S4=(07,13,14,03,00,06,09,10,01,02,08,05,11,12,04,15,   +
               13,08,11,05,06,15,00,03,04,07,02,12,01,10,14,09,        +
               10,06,09,00,12,11,07,13,15,01,03,14,05,02,08,04,        +
               03,15,00,06,10,01,13,08,09,04,05,11,12,07,02,14),       +
               &S5=(02,12,04,01,07,10,11,06,08,05,03,15,13,00,14,09,   +
               14,11,02,12,04,07,13,01,05,00,15,10,03,09,08,06,        +
               04,02,01,11,10,13,07,08,15,09,12,05,06,03,00,14,        +
               11,08,12,07,01,14,02,13,06,15,00,09,10,04,05,03),       +
               &S6=(12,01,10,15,09,02,06,08,00,13,03,04,14,07,05,11,   +
               10,15,04,02,07,12,09,05,06,01,13,14,00,11,03,08,        +
               09,14,15,05,02,08,12,03,07,00,04,10,01,13,11,06,        +
               04,03,02,12,09,05,15,10,11,14,01,07,06,00,08,13),       +
               &S7=(04,11,02,14,15,00,08,13,03,12,09,07,05,10,06,01,   +
               13,00,11,07,04,09,01,10,14,03,05,12,02,15,08,06,        +
               01,04,11,13,12,03,07,14,10,15,06,08,00,05,09,02,        +
               06,11,13,08,01,04,10,07,09,05,00,15,14,02,03,12),       +
               &S8=(13,02,08,04,06,15,11,01,10,09,03,14,05,00,12,07,   +
               01,15,13,08,10,03,07,04,12,05,06,11,00,14,09,02,        +
               07,11,04,01,09,12,14,02,00,06,10,13,15,03,05,08,        +
               02,01,14,07,04,10,08,13,15,12,09,00,03,05,06,11)
.*                                     WRITTEN 07/25/83 BY PAUL DIXON
.*       INPUT:  PARAMETERS OF S-BOX E.G.
.*               DES#S DESSBOX S1=(14,04,13,...),S2=(15,...),...
.*               THE DEFAULTS FOR S1-S8 ARE THE VALUES IN FIPS #46.
.*       OUTPUT: ASSEMBLER PROGRAM WHICH WILL PERMUTE THE BITS IN THE
.*               1ST PARAMETER AND STORE THEM IN THE 2ND PARAMETER E.G.
.*               CALL DES#S(DATA,PERMUTED_DATA);
         LCLC  &L
         AIF   (T'&NAME EQ 'O').NONAME
&L       SETC  'DS#X&SYSNDX'
         MNOTE *,'CALL USING &NAME.(INPUT_BITS,OUTPUT_BITS);'
&NAME    CSECT ,                       REENTRANT MODULE
         SAVE  (14,12),,*&NAME*_&SYSDATE_&SYSTIME
         LM    8,9,20(13)              SAVE R01 SAVE AREA IN R89
         LR    12,15                   R12: ...
         USING &NAME,12                ... PROGRAM BASE
         L     4,0(1)                  R4: @ AAABBBCCCDDDEEEF,FFGGGHHH
         L     5,=X'004080C0'          R5: 0000100020003000 (BASE 4)
         XR    2,2                     R2: 0000000000000000
         L     3,0(4)                  R3: AAABBBCCCDDDEEEF (BASE 4)
         SLDL  2,6                     R2: 0000000000000AAA,BBBCCC...
         SLL   2,2                     R2: 000000000000AAA0,BBBCCC...
         SLDL  2,6                     R2: 000000000AAA0BBB,CCCDDD...
         SLL   2,2                     R2: 00000000AAA0BBB0,CCCDDD...
         SLDL  2,6                     R2: 00000AAA0BBB0CCC,DDDEEE...
         SLL   2,2                     R2: 0000AAA0BBB0CCC0,DDDEEE...
         SLDL  2,6                     R2: 0AAA0BBB0CCC0DDD,EEEF00...
         OR    2,5                     R2: 0AAA1BBB2CCC3DDD
         ST    2,20(13)                STORE FOR TRANSLATE
         XR    2,2                     R2: 0000000000000000
         ICM   3,B'0110',4(4)          R3: EEEFFFGGGHHH0000
         SLDL  2,6                     R2: 0000000000000EEE,FFFGGG...
         SLL   2,2                     R2: 000000000000EEE0,FFFGGG...
         SLDL  2,6                     R2: 000000000EEE0FFF,GGGHHH...
         SLL   2,2                     R2: 00000000EEE0FFF0,GGGHHH...
         SLDL  2,6                     R2: 00000EEE0FFF0GGG,HHH000...
         SLL   2,2                     R2: 0000EEE0FFF0GGG0,HHH000...
         SLDL  2,6                     R2: 0EEE0FFF0GGG0HHH,000000...
         OR    2,5                     R2: 0EEE1FFF2GGG3HHH
         ST    2,24(13)                STORE FOR TRANSLATE
         TR    20(8,13),&L             DO S-BOX TRANSLATION
         XR    2,2                     R2: 0000000000000000
         L     3,20(13)                R3: SS**TT**UU**VV**
         SLDL  2,4                     R2: 00000000000000SS,**TT**...
         SLL   3,4                     R2: 00000000000000SS,TT**UU...
         SLDL  2,4                     R2: 000000000000SSTT,**UU**...
         SLL   3,4                     R2: 000000000000SSTT,UU**VV...
         SLDL  2,4                     R2: 0000000000SSTTUU,**VV**...
         SLL   3,4                     R2: 0000000000SSTTUU,VV**00...
         SLDL  2,4                     R2: 00000000SSTTUUVV,000000...
         L     3,24(13)                R3: **WW**XX**YY**ZZ
         SLL   3,4                     R3: WW**XX**YY**ZZ00
         SLDL  2,4                     R2: 000000SSTTUUVVWW,**XX**...
         SLL   3,4                     R2: 000000SSTTUUVVWW,XX**YY...
         SLDL  2,4                     R2: 0000SSTTUUVVWWXX,**YY**...
         SLL   3,4                     R2: 0000SSTTUUVVWWXX,YY**ZZ...
         SLDL  2,4                     R2: 00SSTTUUVVWWXXYY,**ZZ00...
         SLL   3,4                     R2: 00SSTTUUVVWWXXYY,ZZ0000...
         SLDL  2,4                     R2: SSTTUUVVWWXXYYZZ,000000...
         L     4,4(1)                  R4: @ OUTPUT STRING (32 BITS)
         ST    2,0(4)                  STORE IN OUTPUT AREA
         STM   8,9,20(13)              RESTORE R01 SAVE AREA FROM R89
         RETURN (14,12),RC=0           RETURN TO CALLER
         DROP  12                      DONE WITH BASE REGISTER
         LTORG ,                       ASSEMBLE LITERALS FOR MODULE
&L       DESSBOX0 &S1,&S5              GENERATE TRANSLATE TABLES; ...
         DESSBOX0 &S2,&S6              ... TABLES FOR S1-S4 ARE IN THE
         DESSBOX0 &S3,&S7              ... HIGH NIBBLE; TABLES FOR
         DESSBOX0 &S4,&S8              ... S5-S8 ARE IN THE LOW NIBBLE
         MEXIT
.NONAME  MNOTE 8,'LABEL FIELD MISSING FROM DESSBOX MACRO'
         MEND
