         AIF   (&PASS2).END
&PASS2   SETB  1
         AGO   .STRT
.END     ANOP
&NAME    SETC  'CON'.'&CONNO'
&NAME EQU 0
