         MACRO
&NAME PLIEXIT &COMPILE=
         GBLB  &SPIE
         GBLC  &COMP
         AIF   ('&NAME' EQ '').NONAM
&NAME    EQU   *
.NONAM   ANOP
         AIF   (&SPIE EQ 0).RET
         L     1,PL1PICAH
         SPIE  MF=(E,(1))
.RET     ANOP
         PLICOMP &COMPILE
         AIF   ('&COMP' EQ 'O').OPT
         L     15,=V(IHESAFA)
         BR    15
         AGO   .MEND
.OPT     ANOP
         LR    R0,RD
         L     RD,4(RD)
         L     RE,12(RD)
         LM    R2,RC,28(RD)
         BALR  R1,RE
.MEND    ANOP
         MEND
