         MACRO
&NAME    PLIGOTO &TAG,&COMPILE=
         GBLB  &SPIE
         GBLC  &COMP
         PLICOMP &COMPILE
         AIF   ('&NAME' EQ '').NONAM
&NAME    EQU   *
.NONAM   ANOP
         AIF   (&SPIE EQ 0).GOTO
         L     R1,PL1PICAH
         SPIE  MF=(E,(1))
.GOTO    ANOP
         AIF   ('&TAG'(1,1) EQ '(').REG
         L     R1,=V(&TAG)
         AIF   ('&COMP' EQ 'O').OPT
.F       ANOP
         L     15,=V(IHESAFC)
         BALR  14,15
         MEXIT
.OPT     ANOP
         LM    RE,RF,0(1)
         B     128(RC)
         MEXIT
.REG     ANOP
         LA    R1,0&TAG
         AIF   ('&COMP' EQ 'O').OPT
         AGO   .F
         MEND
