         MACRO
&NAME    SMFDEFA
&NAME    DSECT
SMFRDW   DS    F
SMFHDR   DS    CL1 *         RESERVED
SMFTYPE  DS    CL1 *         TYPE 0 - IPL RECORD
*                                 1 - WAIT TIME RECORD
*                                 2 - DUMP HEADER RECORD
*                                 3 - DUMP TRAILER RECORD
*                                 4 - STEP TERMINATION RECORD
*                                 5 - JOB TERMINATION RECORD
*                                 6 - OUTPUT WRITER RECORD
*                                 7 - DATA LOST RECORD
*                                 8 - I/O CONFIGURATION RECORD
*                                 9 - VARY ONLINE RECORD
*                                10 - ALLOCATION RECOVERY RECORD
*                                11 - VARY OFFLINE RECORD
*                                12 - END-OF-DAY RECORD
SMFHWTME DS    CL4 *         TIME AT WHICH RECORD WAS WRITTEN - .01 SEC
SMFHWDTE DS    PL4 *         DATE ON WHICH RECORD WAS WRITTEN -
*                                 JULIAN FORM
SMFHID   DS    CL2 *         SYSTEM ID FROM SMFDFLT
SMFHMNO  DS    CL2 *         MODEL NUMBER
SMFREC   DS    0C
***********************************************************************
*                                                                  *
*                            IPL RECORD - TYPE O                   *
*                                                                  *
********************************************************************
         ORG   SMFREC
SMFT0    DS    0C
SMF0WTDF DS    CL4 *         JOB WAIT TIME DEFAULT IN MINUTES - BIN
SMF0BUFS DS    CL4 *         SMF BUFFER SIZE IN BYTES - BIN
SMF0CORS DS    CL4 *         MAIN STORAGE SIZE IN K BLOCKS - BIN
SMF0OPTS DS    CL1 *         BIT 0 - SYSTEM AND JOB DATA TO BE COLLECTE
*                                1 - SYSTEM, JOB, AND STEP DATA TO BE
*                                    COLLECTED
*                                2 - EXITS REQUESTED
*                                3-7 RESERVED
********************************************************************
*                                                                  *
*                            WAIT TIME RECORD - TYPE 1             *
*                                                                  *
********************************************************************
         ORG   SMFREC
SMFT1    DS    0C
SMF1WAIT DS    CL4 *         SYSTEM WAIT TIME, IN HUNDREDTHS OF
*                                 SECONDS, SINCE LAST TYPE 1 RECORD
********************************************************************
*                                                                  *
*                            STEP TERMINATION RECORD - TYPE 4      *
*                                                                  *
********************************************************************
         ORG   SMFREC
SMFT4    DS    0C
SMF4JNAM DS    CL8 *         JOB NAME
SMF4RTME DS    CL4 *         READER START TIME IN HUNDREDTHS OF SECONDS
*                                 - BIN
SMF4RDTE DS    PL4 *         READER START DATE IN JULIAN FORM
SMF4USID DS    CL4 *         VOLUNTARY WAIT TIME .01 SECONDS - BIN
         DS    CL4 *         PAD TO FILL OUT USER ID FIELD
SMF4STN0 DS    CL1 *         STEP NUMBER
SMF4STME DS    CL4 *         STEP INITIATION TIME .01 SECONDS - BIN
SMF4SDTE DS    PL4 *         STEP INITIATION DATE JULIAN FORM
SMF4CDCT DS    CL4 *         CARD COUNT FOR DD */DATA - BIN
SMF4CODE DS    CL2 *         STEP COMPLETION CODE
SMF4PRTY DS    CL1 *         STEP PRIORITY 0-255
SMF4PGMN DS    CL8 *         PROGRAM NAME FROM EXEC CARD
SMF4SNAM DS    CL8 *         STEP NAME FROM EXEC CARD
SMF4RGR0 DS    CL2 *         REGION SIZE IN 1K BLOCKS H0 - BIN
SMF4RGR1 DS    CL2 *         REGION SIZE IN 1K BLOCKS H1 - BIN
SMF4RGU0 DS    CL2 *         REGION SIZE USED IN 1K BLOCKS H0 - BIN
SMF4RGB0 DS    CL2 *         REGION SIZE BORROWED ETC.
SMF4RGU1 DS    CL2 *         REGION SIZE USED ETC.
SMF4RGB1 DS    CL2 *         REGION SIZE BORROWED ETC.
SMF4PKF  DS    CL1 *         STORAGE PROTECT KEY
         DS    CL3 *         RESERVED
SMF4ATME DS    CL4 *         DEVICE ALLOCATION TIME .01 SECS - BIN
SMF4PTME DS    CL4 *         PROBLEM PROGRAM LOAD TIME-OF-DAY .01 SEC
         DS    CL8 *         RESERVED
SMF4DVLN DS    CL2 *         LENGTH OF FOLLOWING ARRAY OF DEVICE FIELDS
SMF4DVAR DS    0CL8 *        THIS FIELD IS REPEATED AS SPECIFIED BY
*                                 SMF4DVLN
SMF4DVCL DS    CL1 *         COPIED FROM UCBTYP+2
SMF4DVTP DS    CL1 *         COPIED FROM UCBTYP+3
SMF4CHAN DS    CL1 *         COPIED FROM 3 LO-ORDER BITS IN UCBCHA
SMF4DVAD DS    CL1 *         COPIED FROM UCBUA
SMF4EXCP DS    CL4 *         EXCP COUNT
*
SMF4LTLN DS    CL1 *         LENGTH REMAINING TO END OF RECORD - BIN
SMF4CTME DS    CL3 *         STEP CPU TIME .01 SECS - BIN
SMF4ACLN DS    CL1 *         NUMBER OF ACCOUNTING FIELDS THAT FOLLOW
*
SMF4ACEL DS    CL1 *         LENGTH OF FIELD - AN OMITTED FIELD = 0
SMF4ACFD DS    0C *          FIELD
********************************************************************
*                                                                  *
*                            JOB TERMINATION RECORD - TYPE 5       *
*                                                                  *
********************************************************************
         ORG   SMFREC
SMFT5    DS    0C
SMF5JNAM DS    CL8 *         JOB NAME
SMF5RTME DS    CL4 *         READER START TIME IN HUNDREDTHS OF SECONDS
*                                 - BIN
SMF5RDTE DS    PL4 *         READER START DATE IN JULIAN FORM
SMF5USID DS    CL4 *
         DS    CL4 *
SMF5SCNT DS    CL1 *         NUMBER OF STEPS IN JOB
SMF5STME DS    CL4 *         JOB INITIATION TIME .01 SECS - BIN
SMF5SDTE DS    PL4 *         JOB INITIATION DATE JULIAN FORM
SMF5CDCT DS    CL4 *         CARD COUNT FOR DD */DATA - BIN
SMF5CODE DS    CL2 *         JOB COMPLETION CODE
SMF5PRTY DS    CL1 *         JOB PRIORITY 0-13
SMF5RETM DS    CL4 *         READER STOP TIME .01 SECS - BIN
SMF5REDT DS    PL4 *         READER STOP DATE
SMF5COND DS    CL1 *         JOB TERMINATION INDICATOR
*                              BIT 0 - RESERVED
*                                  1 - CANCELED AT IEFUJV
*                                  2 -             IEFUJI
*                                  3               IEFUSI
*                                  4               IEFACTRT
*                                  5               IEFUTL
*                                  6 O-NORMAL COMPLETION
*                                    1-ABEND
*                                  7 RESERVED
SMF5SYSO DS    CL5 *         SYSOUT CLASSES USED
* BYTE -0       1       2       3       4
* BIT  -0123456701234567012345670123456701234567
* CLASS-ABCDEFGHIJKLMNOPQRSTUVWXYZ0123456789
SMF5CKPT DS    CL1 *         CHECKPOINT/RESTART INDICATOR
*                            BIT O - SYSTEM RESTART
*                              1,2 - RESERVED
*                                3 - CHECKPOINT TAKEN FOR STEP
*                                4 - CHECKPOINT RESTART
*                  5 - STEP RESTART
*                              6,7 - RESERVED
SMF5RDDV DS    CL1 *         READER DEVICE CLASS FROM UCB
SMF5RDUT DS    CL1 *         READER UNIT TYPE FROM UCB
SMF5JBCL DS    CL1 *         JOB CLASS
SMF5PKF  DS    CL1 *         STORAGE PROTECT KEY
         DS    CL19 *        RESERVED
SMF5LTLN DS    CL1 *         LENGTH REMAINING TO END OF RECORD
SMF5PGN  DS    CL20          * PROGRAMMER NAME FIELD
SMF5CTME DS    CL3 *         STEP CPU TIME .01 SECS
SMF5ACLN DS    CL1 *         NUMBER OF ACCOUNTING FIELDS THAT FOLLOW
*
SMF5ACEL DS    CL1 *         LENGTH OF FIELD - AN OMITTED FIELD = 0
SMF5ALFD DS    0C *          FIELD
********************************************************************
*                                                                  *
*                            OUTPUT WRITER RECORD - TYPE 6         *
*                                                                  *
********************************************************************
         ORG   SMFREC
SMFT6    DS    0C
SMF6JNAM DS    CL8 *         JOB NAME
SMF6RTME DS    CL4 *         READER START TIME
SMF6RDTE DS    PL4 *         READER START DATE
SMF6USID DS    CL4 *
         DS    CL4 *
SMF6CLAS DS    CL1 *         SYSOUT CLASS
SMF6WTME DS    CL4 *         WRITER START TIME
SMF6WDTE DS    PL4 *         WRITER START DATE
SMF6WCNT DS    CL4 *         NUMBER OF RECORDS WRITTEN
SMF6IOER DS    CL1 *         I/0 ERROR INDICATOR
*                            BIT 5 - INPUT ERROR
*                                6 - OUTPUT ERROR
*                                7 - ERROR ON SYSJOBQE
SMF6DSCT DS    CL1 *         TOTAL NUMBER OF DATA SETS FOR JOB
SMF6FMN0 DS    CL4 *         FORM NUMBER
********************************************************************
*                                                                  *
*                            DATA LOST - TYPE 7                    *
*                                                                     *
********************************************************************
         ORG   SMFREC
SMFT7    DS    0C
SMF7LOST DS    CL2 *         NUMBER OF RECORDS LOST
SMF7STME DS    CL4 *         START TIME AT WHICH NO DATA SET WAS
*                                 AVAILABLE FOR RECORDING SMF RECORDS
SMF7SDTE DS    PL4 *         START DATE ETC.
********************************************************************
*                                                                  *
*                            I/O CONFIGURATION - TYPE 8            *
*                            VARY ONLINE - TYPE 9                  *
*                            VARY OFFLINE - TYPE 11                *
*                                                                  *
********************************************************************
         ORG   SMFREC
SMFT8    DS    0C
SMF8DVLN DS    CL2 *         LENGTH OF FOLLOWING ARRAY OF DEVICE FIELDS
SMF8DVAR DS    0CL4
*
SMF8DVCL DS    CL1 *         COPIED FROM UCBTYP+2
SMF8DVTP DS    CL1 *         COPIED FROM UCBTYP+3
SMF8CHAN DS    CL1 *         COPIED FROM 3 LO-ORDER BITS IN UCBCHA
SMF8DVAD DS    CL1 *         COPIED FROM UCBUA
********************************************************************
*                                                                  *
*                            ALLOCATION RECOVERY RECORD - TYPE 10  *
*                                                                  *
********************************************************************
         ORG   SMFREC
SMFT10   DS    0C
SMFAJNAM DS    CL8 *         JOB NAME
SMFARTME DS    CL4 *         READER START TIME
SMFARDTE DS    PL4 *         READER START DATE
SMFAUSID DS    CL4
         DS    CL4
SMFADVLN DS    CL2 *         LENGTH OF FOLLOWING ARRAY OF DEVICE FIELDS
SMFADVAR DS    0CL4
*
SMFADVCL DS    CL1 *         COPIED FROM UCBTYP+2
SMFADVTP DS    CL1 *         COPIED FROM UCBTYP+3
SMFACHAN DS    CL1 *         COPIED FROM 3 LO-ORDER BITS IN UCBCHA
SMFADVAD DS    CL1 *         COPIED FROM UCBUA
         MEND
