         MACRO
&NAME    APFAUTH &REQUEST
.**********************************************************************
.*                                                                    *
.*  MACRO: APFAUTH                                                    *
.*                                                                    *
.*  PURPOSE: TO GRANT, REMOVE OR TEST A PROGRAM'S AUTHORITY.          *
.*                                                                    *
.*  FORMAT:                                                           *
.*    APFAUTH ON     - GRANTS AUTHORITY TO A PROGRAM IF IT IS IN THE  *
.*                     PAGEABLE LINK PACK AREA.                       *
.*                                                                    *
.*    APFAUTH OFF    - REMOVES AUTHORITY FORM ANY PROGRAM.            *
.*                                                                    *
.*    APFAUTH TEST   - TESTS THE AUTHORITY OF A PROGRAM               *
.*                                                                    *
.*  REGISTER USAGE                                                    *
.*    REGISTER 0  - USED TO PASS PARAMETERS TO SVC ###.               *
.*    REGISTER 1  - FOR TEST AUTHORIZATION, RETURNS AUTHORIZATION     *
.*                     STATUS.                                        *
.*       0 => PROGRAM IS NOT AUTHORIZED                               *
.*       1 => PROGRAM IS AUTHORIZED                                   *
.*    REGISTER 15 - RETURN CODE                                       *
.*       0 => AUTHORIZATION HAS BEEN TESTED, GRANTED OR REMOVED AS    *
.*            REQUESTED BY THE REQUEST CODE IN REGISTER 0.            *
.*       4 => THE PROGRAM REQUESTED AUTHORIZATION TO BE GRANTED OR    *
.*            REMOVED, BUT ALREADY WAS IN THE STATE REQUESTED.        *
.*       8 => AN INVALID REQUEST CODE WAS SPECIFIED IN REGISTER 0.    *
.*                                                                    *
.**********************************************************************
         LCLC  &SVCNO
&SVCNO   SETC  '###'   SVC NUMBER TO DYMANICLLY SET APF AUTHORIZATION
         AIF   ('&REQUEST' EQ 'ON').ON
         AIF   ('&REQUEST' EQ 'OFF').OFF
         AIF   ('&REQUEST' EQ 'TEST').TEST
         MNOTE 8,'REQUEST INVALID, MUST BE ON, OFF, OR TEST'
         MEXIT
.ON      ANOP
         LA    0,2                     INDICATE AUTHORIZATION REQUESTED
         SVC   &SVCNO                  ISSUE LOCAL SVC
         MEXIT
.OFF     ANOP
         LA    0,1                     INDICATE REMOVE AUTHORIZATION
         SVC   &SVCNO                  ISSUE LOCAL SVC
         MEXIT
.TEST    ANOP
         LA    0,0                     INDICATE TEST AUTHORIZATION
         SVC   &SVCNO                  ISSUE LOCAL SVC
         MEXIT
         MEND
