         MACRO
&NAME    BLOCK &SAVE,&RETURN=14
         AIF   ('&NAME' NE '').NAME
         MNOTE 4,'BLOCK MACRO NORMALLY REQUIRES A LABEL'
.NAME    ANOP
         DS    0H
&NAME    EQU   *
         AIF   ('&SAVE' NE '').SAVE
         MNOTE 8,'BLOCK MACRO REQUIRES SAVE AREA PARAMETER'
         MEXIT
.SAVE    ANOP
         ST    &RETURN,&SAVE
         MEND
