         MACRO
&NAME    ENDBLOCK &SAVE,&RETURN=14
         AIF   ('&SAVE' NE '').SAVE
         MNOTE 8,'ENDBLOCK MACRO REQUIRES SAVE AREA PARAMETER'
         MEXIT
.SAVE    ANOP
&NAME    L     &RETURN,&SAVE
         MVC   &SAVE,=F'0'
         BR    &RETURN
         MEND
