*        %GOTO TPCPLS1;                                              /*
         MACRO
&NAME    IEAVVTPC  &DSECT=YES                                        */
*%TPCPLS1 : ;
* /******************************************************************/
* /*                                                                */
* /* MACCOMP       OS/VS2,RELEASE 4   SC1CV/PZD81                   */
* /*                                                                */
* /* MACSTAT       OS/VS2,RELEASE 4   73137/Y02759                  */
* /*                                                                */
* /******************************************************************/
*        %GOTO TPCPLS2;                                             /*
         AIF   ('&DSECT' EQ 'NO').TT
TPC      DSECT ,TPCPTR
         AGO   .EE
.TT      ANOP
         ENTRY IEATPC
         ENTRY IEATSELM
         ENTRY TPCMFTQE
.EE      ANOP
IEATPC   DS    0D                       TIMER SUPERVISION WORK AREA
TPCTPCA  DC    C' TPC'                  TPC IDENTIFICATION
TPCFLGS1 DC    X'00'                    TPCA FLAG BYTE 1
TPCABND  EQU   X'80'                    REAL TQES ABENDED
TPCSYNC  EQU   X'40'                    SYNC CHECK OCCURRED
         DC    X'0000'                  RESERVED
TPCCC    DC    X'00'                    STCK CONDITION CODE
TPCTZORG DC    F'0'                     IPL TIME ZONE CONSTANT
TPCHDCCQ DC    A(TPCDMTQE)              HEAD OF REAL TIME QUEUE
TPCDMTQE DC    C' TQE'                  DUMMY TQE
DFD      DC    A(TPCDMTQE)              DUMMY TQE
         DC    A(TPCHDCCQ-DFD+TPCDMTQE) DUMMY TQE
         DC    H'0'                     DUMMY TQE
         DC    X'03'                    DUMMY TQE
         DC    X'10'                    DUMMY TQE
         DC    X'FFFFFFFFFFFFFFFF'      DUMMY TQE
TPCMNTQE DC    C' TQE'                  MIDNIGHT TQE
         DC    F'0'                     MIDNIGHT TQE
         DC    F'0'                     MIDNIGHT TQE
         DC    H'0'                     MIDNIGHT TQE
         DC    X'83'                    MIDNIGHT TQE
         DC    X'01'                    MIDNIGHT TQE
MNIGHT   DC    2F'0'                    MIDNIGHT TQE
TPCMFTQE DC    C' TQE'                  MF/1 TQE
         DC    F'0'                     MF/1 TQE
         DC    F'0'                     MF/1 TQE
         DC    H'0'                     MF/1 TQE
         DC    X'83'                    MF/1 TQE
         DC    X'02'                    MF/1 TQE
         DC    2F'0'                    MF/1 TQE
IEATSELM DC    C' TQE'                  SYSTEM RESOURCES MANAGER TQE
         DC    F'0'                     SYSTEM RESOURCES MANAGER TQE
         DC    F'0'                     SYSTEM RESOURCES MANAGER TQE
         DC    H'0'                     SYSTEM RESOURCES MANAGER TQE
         DC    X'83'                    SYSTEM RESOURCES MANAGER TQE
         DC    X'04'                    SYSTEM RESOURCES MANAGER TQE
         DC    2F'0'                    SYSTEM RESOURCES MANAGER TQE
TPCLMTQE DC    C' TQE'                  TIME LIMIT CHECKING TQE
         DC    F'0'                     TIME LIMIT CHECKING TQE
         DC    F'0'                     TIME LIMIT CHECKING TQE
         DC    H'0'                     TIME LIMIT CHECKING TQE
         DC    X'83'                    TIME LIMIT CHECKING TQE
         DC    X'08'                    TIME LIMIT CHECKING TQE
         DC    2F'0'                    TIME LIMIT CHECKING TQE
TPCSAVE1 DS    16F                      TIMER GLOBAL SAVE AREA 1
TPCSAVE2 DS    16F                      TIMER GLOBAL SAVE AREA 2
TPCWORK  DC    2F'0'                    WORK AREA
TPCMISC  DC    18F'0'                   WORK AREA
TPCVPTR  DC    V(IEAVRNEW)              ADDR OF VARY ONLINE ROUTINE
TPCFRRP  DC    V(IEAVRFRR)              ADDR OF TIMER FRR
TPCCRSAV DC    F'0'                     SAVE AREA FOR CR 0
TPCTCWA  DC    F'0'                     ADDR OF TOD WORKAREA
         AIF   ('&DSECT' EQ 'NO').ZZZ
TPCRSRB  DC    11F'0'
         AGO   .QQQ
.ZZZ     ANOP
SRBSIZE  EQU   44                        SRB SIZE IN BYTES
SRB      EQU   0
SRBASCB  EQU   8
SRBASID  EQU   14
SRBPTCB  EQU   16
TPCRSRB  DC    (SRBSIZE/4)F'0'          TIMER HW RECOVERY SRB
         ORG   TPCRSRB+(SRBASCB-SRB)
         DC    A(IEAMASCB)              PTR TO MASTER ASCB
         ORG   TPCRSRB+(SRBASID-SRB)
         DC    H'1'                     ASID OF MASTER
         ORG   TPCRSRB+(SRBPTCB-SRB)
         DC    A(IEAMSTCB)              ADDR OF MASTER TCB
         ORG   TPCRSRB+SRBSIZE
.QQQ     ANOP
TPCCKQ   DC    V(IEAVRCKQ)              ADDRESS OF IEAVRCKQ
TPCCLA   DC    AL4(0)                   ADDRESS OF IEAVRCLA
TPCSDIE  DC    V(IEAVRDIE)              ADDRESS OF SETDIE      @Z40FPYB
TPCOCL   DC    V(IEAVROCL)              ADDRESS OF IEAVROCL    @Z40FPYB
         MEND  , */
*%TPCPLS2 : ;
*%IF DSECT^='NO' %THEN
*   %GOTO VVTPCL01;
*%ELSE
*   %GOTO TT;
*%VVTPCL01 : ;
*DECLARE
*  1 TPC       BASED(TPCPTR) BDY(DWORD),
*%GOTO EE ;
*%TT  :  ;
*DECLARE  1  TPC  STATIC LOCAL,
*%EE : ;
*   2 IEATPC,                          /* TIMER SUPERVISION WORKAREA */
*     3 TPCTPCA  CHAR(4) BDY(DWORD)
*       INITIAL(' TPC'),               /* TPC IDENTIFICATION        */
*     3 TPCFLGS1 CHAR(1)INITIAL('00'X), /* TPCA FLAG BYTE 1          */
*       5 TPCABND BIT(1),              /* REAL TQES ABENDED          */
        5 TPCSYNC BIT(1),              /* SYNC CHECK OCCURRED        */
*       5 *   BIT(6),                  /* RESERVED                   */
*     3 *   CHAR(2) INITIAL('0000'X),  /* RESERVED                   */
*     3 TPCCC  CHAR(1) INITIAL('00'X), /* STCK CONDITION CODE        */
*     3 TPCTZORG FIXED(31) INITIAL(0), /* IPL TIME ZONE CONSTANT     */
*     3 TPCHDCCQ POINTER(31)
*       INITIAL(ADDR(TPCDMTQE)),       /* HEAD OF REAL TIME QUEUE    */
*     3 TPCDMTQE,                           /* DUMMY TQE             */
*       5 *  CHAR(4) INITIAL(' TQE'),       /* DUMMY TQE             */
*       5 DFD POINTER(31)                   /* DUMMY TQE             */
*         INITIAL(ADDR(TPCDMTQE)),          /* DUMMY TQE             */
*       5 *  POINTER(31) INITIAL            /* DUMMY TQE             */
*         (ADDR(TPCHDCCQ)-ADDR(DFD)+ADDR(TPCDMTQE)), /* DUMMY TQE    */
*       5 *  FIXED(16) UNSIGNED             /* DUMMY TQE             */
*         INITIAL(0),                       /* DUMMY TQE             */
*       5 *  CHAR(1) INITIAL('03'X),        /* DUMMY TQE             */
*       5 *  CHAR(1) INITIAL('10'X),        /* DUMMY TQE             */
*       5 *  BIT(64) INITIAL('FFFFFFFFFFFFFFFF'X), /* DUMMY TQE      */
*     3 TPCMNTQE,                           /* MIDNIGHT TQE          */
*       5 *  CHAR(4) INITIAL(' TQE'),       /* MIDNIGHT TQE          */
*       5 *  POINTER(31) INITIAL(0),        /* MIDNIGHT TQE          */
*       5 *  POINTER(31) INITIAL(0),        /* MIDNIGHT TQE          */
*       5 *  FIXED(16) UNSIGNED             /* MIDNIGHT TQE          */
*         INITIAL(0),                       /* MIDNIGHT TQE          */
*       5 *  CHAR(1) INITIAL('83'X),        /* MIDNIGHT TQE          */
*       5 *  CHAR(1)  INITIAL('01'X),       /* MIDNIGHT TQE          */
*       5 MNIGHT BIT(64) BDY(DWORD)         /* MIDNIGHT TQE          */
*               INIT('0000000000000000'),
*         7 MNIGHTLH  FIXED(32) UNSIGNED,
*         7 MNIGHTRH  FIXED(32) UNSIGNED,
*     3 TPCMFTQE,                           /* MF/1 TQE              */
*       5 *  CHAR(4) INITIAL(' TQE'),       /* MF/1 TQE              */
*       5 *  POINTER(31) INITIAL(0),        /* MF/1 TQE              */
*       5 *  POINTER(31) INITIAL(0),        /* MF/1 TQE              */
*       5 *  FIXED(16) UNSIGNED             /* MF/1 TQE              */
*         INITIAL(0),                       /* MF/1 TQE              */
*       5 *  CHAR(1) INITIAL('83'X),        /* MF/1 TQE              */
*       5 *  CHAR(1) INITIAL('02'X),        /* MF/1 TQE              */
*       5 *  BIT(64),                       /* MF/1 TQE              */
*     3 IEATSELM,                           /* SYS RESOURCES MGR TQE */
*       5 *  CHAR(4)  INITIAL(' TQE'),      /* SYS RESOURCES MGR TQE */
*       5 *  POINTER(31) INITIAL(0),        /* SYS RESOURCES MGR TQE */
*       5 *  POINTER(31) INITIAL(0),        /* SYS RESOURCES MGR TQE */
*       5 *  FIXED(16) UNSIGNED             /* SYS RESOURCES MGR TQE */
*            INITIAL (0),                   /* SYS RESOURCES MGR TQE */
*       5 *  CHAR(1) INITIAL('83'X),        /* SYS RESOURCES MGR TQE */
*       5 *  CHAR(1) INITIAL('04'X),        /* SYS RESOURCES MGR TQE */
*       5 *  BIT(64),                       /* SYS RESOURCES MGR TQE */
*     3 TPCLMTQE,                           /* TIME LIMIT CKING TQE  */
*       5 *  CHAR(4)  INITIAL(' TQE'),      /* TIME LIMIT CKING TQE  */
*       5 *  POINTER(31) INITIAL(0),        /* TIME LIMIT CKING TQE  */
*       5 *  POINTER(31) INITIAL(0),        /* TIME LIMIT CKING TQE  */
*       5 *  FIXED(16) UNSIGNED             /* TIME LIMIT CKING TQE  */
*         INITIAL(0),                       /* TIME LIMIT CKING TQE  */
*       5 *  CHAR(1) INITIAL('83'X),        /* TIME LIMIT CKING TQE  */
*       5 *  CHAR(1) INITIAL('08'X),        /* TIME LIMIT CKING TQE  */
*       5 *  BIT(64),                       /* TIME LIMIT CKING TQE  */
*     3 TPCSAVE1 (16) FIXED(31),            /* TIMER GLBL SAVEAREA 1 */
*     3 TPCSAVE2 (16) FIXED(31),            /* TIMER GLBL SAVEAREA 2 */
*     3 TPCWORK  BIT(64) BDY(DWORD),   /* WORKAREA                   */
*       5 TPCWORKL  FIXED(32) UNSIGNED,
*       5 TPCWORKR  FIXED(32) UNSIGNED,
*     3 TPCMISC(18) POINTER(31),       /* WORK AREA                 */
*     3 TPCVPTR  POINTER(31),          /* PTR TO VARY ONLINE ROUTINE*/
*     3 TPCFRRP  POINTER(31),          /* PTR TO TIMER FRR          */
*     3 TPCCRSAV FIXED(32) UNSIGNED
*       INITIAL(0),                    /* SAVE AREA FOR CR0          */
*     3 TPCTCWA  POINTER(31) INITIAL(0),    /* ADDR OF TOD WORKAREA  */
*     3 TPCRSRB  (11) FIXED(31) INITIAL(0), /* TIMER HW RECVY SRB    */
*     3 TPCCKQ   POINTER(31),               /* ADDR OF IEAVRCK       */
*     3 TPCCLA   POINTER(31) INITIAL(0),    /* ADDR OF IEAVRCLA      */
*     3 TPCSDIE  POINTER(31),  /* ADDR OF SETDIE  ROUTINE    @Z40FPYB*/
*     3 TPCOCL  POINTER(31);  /* ADDR OF OCL ROUTINE         @Z40FPYB*/
