* /*     06/30/72  R2                                                */
*   %GOTO QMREQBSL;                           /* BILINGUAL MAPPING
         MACRO
&NAME    IEFQMREQ
*   LINKAGE MACRO TO SWA MANAGER - IEFQB550
&NAME    L     15,16(0,0)              LOAD CVT POINTER
         USING CVTMAP,15               START OF CVT
         L     15,CVTJESCT             LOAD JESCT POINTER
         USING JESCT,15
         L     15,JESQMGR              LOAD QUEUE MANAGER ENTRY POINT
         BALR  14,15                   BRANCH TO SWA MANAGER
         DROP  15
         MEND                                                        */
*%QMREQBSL:;
*  DCL
*         SWAMGPTR REG(15) PTR(31);
*   SWAMGPTR = CVTJESCT -> JESQMGR;
*GEN (BALR 14,15);                            /* GO TO SWA MANAGER   */
