*        %GOTO IFALRB;   /*
         MACRO
&NAME    IFASMFRA &RECTYPE
.* *                                                                  *
.* * MACMEAN IFASMFRA MEANS SYSTEM MANAGEMENT FACILITY RECORD MAPPING *
.* * MACCOMP Y-2 SC102/BL27P                                          *
.* * MACSTAT Y-2 73298/42020                                          *
.* * METHOD OF ACCESS                                                 *
.* *  PL/S - INCLUDE MACRO FROM LIBRARY                               *
.* *          EXAMPLE - %INCLUDE SYSLIB(IFASMFRA)                     *
.* *                                                                  *
.* *         THIS MACRO EXPANDS RECORDS 94-103                        *
.* *                                                                  *
.* *
.* THIS IS AN SMF MACRO WHICH BUILDS SMF RECORDS 94-103. THE REQUIRED
.* FORMAT IS -
.*
.*       IFASMFRA  &RECTYPE
.**********************************************************************
.E5      ANOP
         SPACE 3
         MNOTE 4,'&RECTYPE INVALID RECORD TYPE SPECIFIED'
.CONTB   ANOP
         MEXIT
         MEND      */
 %IFALRB: ;
