*        %GOTO IFAL62;   /*
         MACRO
&NAME    IFASMFR6 &RECTYPE
.* *                                                                  *
.* * MACMEAN IFASMFR6 MEANS SYSTEM MANAGEMENT FACILITY RECORD MAPPING *
.* * MACCOMP Y-2 SC102/BL27P                                          *
.* * MACSTAT Y-2 73298/42020                                          *
.* * METHOD OF ACCESS                                                 *
.* *  PL/S - INCLUDE MACRO FROM LIBRARY                               *
.* *          EXAMPLE - %INCLUDE SYSLIB(IFASMFR6)                     *
.* *                                                                  *
.* *          THIS MACRO EXPANDS RECORDS 55-69.                       *
.* *                                                                  *
.* *
.* THIS IS AN SMF MACRO WHICH BUILDS SMF RECORDS 55-69. THE REQUIRED
.* FORMAT IS -
.*
.*       IFASMFR6 &RECTYPE
.**********************************************************************
         AIF   (&RECTYPE EQ 62).IFAS062                          Y02113
         AIF   (&RECTYPE EQ 63).IFAS063
         AIF   (&RECTYPE EQ 64).IFAS064                          Y02113
         AIF   (&RECTYPE EQ 67).IFAS067
         AIF   (&RECTYPE EQ 68).IFAS068                         Y02113
         AIF   (&RECTYPE EQ 69).IFAS069                         Y02113
.E5      ANOP
         SPACE 3
         MNOTE 4,'&RECTYPE INVALID RECORD TYPE SPECIFIED'
.CONTB   ANOP
         MEXIT
.IFAS062 ANOP                                                    Y02113
         EJECT                                                   Y02113
* THIS DSECT DEFINES THE FORMAT FOR RECORD TYPE 62 (VSAM DATA SETY02113
* OPEN RECORD). RECORD LENGTH IS VARIABLE. MINIMUM OF 148 BYTES. Y02113
         DS    0F                  ALIGN TO FULL WORD BOUNDRY    Y02113
SMFRCD62 EQU   *                   HEADER SEGMENT                Y02113
SMF62LEN DS    BL2'0'              RECORD LENGTH                 Y02113
SMF62SEG DS    BL2'0'              SEGMENT DESCRIPTOR            Y02113
SMF62FLG DC    BL1'0'              HEADER FLAG BYTE              Y02113
SMF62RTY DC    BL1'0'              RECORD TYPE 62                Y02113
SMF62TME DC    BL4'0'              TOD, USING FORMAT FROM TIME   Y02113
*                                  MACRO WITH BIN INTERVAL       Y02113
SMF62DTE DC    PL4'0000'           DATE IN PACKED DECIMAL FORM   Y02113
*                                  00YYDDDF (F IS THE SIGN)      Y02113
SMF62SID DC    CL4' '              SYSTEM IDENTIFICATION         Y02113
SMF62JBN DC    CL8' '              JOBNAME                       Y02113
SMF62RST DC    BL4'0'              READER START TIMER (.01 SEC)  Y02113
SMF62RSD DC    PL4'0000'           READER START DATE             Y02113
SMF62UIF DC    CL8' '              USER IDENTIFICATION FIELD     Y02113
SMF62IND DC    BL4'0'              OPEN STATUS INDICATOR         Y02113
*                                  BIT MEANING WHEN SET          Y02113
*                                  BIT 0 - OPEN SUCCESSFUL       Y02113
*                                  BIT 1 - SECURITY VIOLATION    Y02113
*                                          (INVALID PASSWORD)    Y02113
*                                  BITS 2-31 - RESERVED          Y02113
SMF62CNM DC    CL44' '             CATALOG DATA SET NAME         Y02113
SMF62CVS DC    CL6' '              CATALOG VOLUME SERIAL NUMBER  Y02113
SMF62DNM DC    CL44' '             DATA SET NAME                 Y02113
SMF62VCT DC    BL2'0'              VOLUME COUNT                  Y02113
SMF62VLT EQU   *                   VOLUME LIST                   Y02113
* THE FOLLOWING ENTRY IS CREATED FOR EACH VOLUME                 Y02113
SMF62VSR DC    CL6' '              VOLUME SERIAL                 Y02113
SMF62DTY DC    BL4'0'              DEVICE TYPE                   Y02113
         ORG   SMF62VLT                                          Y02113
         AGO   .CONTB                                            Y02113
.IFAS063 ANOP
         EJECT
*  THIS RECORD IS WRITTEN AFTER A VSAM CLUSTER OR COMPONENT IS DEFINED
*  AND WHEN THE DEFINITION IS ALTERED.
*
         DS    0F        ALIGN TO FULL WORD BOUNDARY
SMFRCD63 EQU   *         HEADER SEGMENT
SMF63LEN DS    BL2'0'    RECORD LENGTH
SMF63SEG DS    BL2'0'    SEGMENT DESCRIPTOR
SMF63FLG DS    BL1'0'    HEADER FLAG BYTE
SMF63RTY DS    BL1'0'    RECORD TYPE 63
SMF63TME DS    BL4'0'    TOD USING FORMAT FROM TIME MACRO W/BIN. INTVL.
SMF63DTE DS    PL4'0000' DATE IN PACKED DECIMAL FORM: OOYYDDDF
SMF63SID DS    CL2' '    SYSTEM IDENTIFICATION
SMF63SMI DS    CL2' '    SYSTEM MODEL IDENTIFIER
SMF63JBN DS    CL8' '    JOB NAME
SMF63RST DS    BL4'0'    READER START TIME (IN 100THS SECONDS)
SMF63RSD DS    PL4'0000' READER START DATE
SMF63UIF DS    CL8' '    USER IDENTIFICATION FIELD
SMF63FDT DS    BL1'0'    FUNCTION AND DATA SET TYPE INDICATOR
*                        BIT0 - NEW DEFINITION
*                        BIT1 - ALTERED DEFINITION
*                        BIT2-7 - RESERVED
SMF63TYP DS    BL1'0'    TYPE OF ENTRY
*                        BIT0 - CLUSTER
*                        BIT1 - VSAM DATA COMPONENT
*                        BIT2 - INDEX COMPONENT
*                        BIT3 - CATALOG
*                        BIT4 - NON-VSAM DATA SET
*                        BIT5 - GENERATION DATA GROUP
*                        BIT6 - ALIAS
*                        BIT7 - RESERVED
SMF63NSZ DS    BL2'0'    SIZE OF NEW CATALOG RECORD
SMF63OSZ DS    BL2'0'    SIZE OF OLD CATALOG RECORD
SMF63CNM DS    CL44' '   NAME OF CATALOG IN WHICH ENTRY IS DEFINED
SMF63ENM DS    CL44' '   ENTRY NAME
SMF63NCR DS    0H        NEW CATALOG RECORD
         ORG   SMF63NCR
SMF63OCR DS    0H        OLD CATALOG RECORD
         AGO   .CONTB
.IFAS064 ANOP                                                    Y02113
         EJECT                                                   Y02113
* THIS DSECT DEFINES THE FORMAT FOR RECORD TYPE 64 (VSAM DATA    Y02113
* SET STATUS AT CLOSE OR EOV TIME). RECORD LENGTH IS VARIABLE.   Y02113
* MINIMUM OF 254 BYTES.                                          Y02113
         DS    0F                   ALIGN TO FULLWORD BOUNDARY   Y02113
SMFRCD64 EQU   *                    HEADER SEGMENT               Y02113
SMF64LEN DS    BL2'0'               RECORD LENGTH                Y02113
SMF64SEG DS    BL2'0'               SEGMENT DESCRIPTOR           Y02113
SMF64FLG DC    BL1'0'               HEADER FLAG BYTE             Y02113
SMF64RTY DC    BL1'0'               RECORD TYPE 64               Y02113
SMF64TME DC    BL4'0'               TOD, USING FORMAT FROM TIME  Y02113
*                                   MACRO WITH BIN INTERVAL      Y02113
SMF64DTE DC    PL4'0000'            DATE IN PACKED DECIMAL FORM  Y02113
*                                   00YYDDDF (F IS THE SIGN)     Y02113
SMF64SID DC    CL4' '               SYSTEM IDENTIFICATION        Y02113
SMF64JBN DC    CL8' '               JOBNAME                      Y02113
SMF64RST DC    BL4'0'               READER START TIME (IN 100THS Y02113
*                                   SECONDS)                     Y02113
SMF64RSD DC    PL4'0000'            READER START DATE            Y02113
SMF64UIF DC    CL8' '               USER IDENTIFICATION FIELD    Y02113
SMF64RIN DC    BL1'0'               RECORDING INDICATORS         Y02113
*                                   BIT MEANING WHEN SET         Y02113
*                                   BIT 0 - RECORD WRITTEN BY CLOSE
*                                   BIT 1 - RECORD WRITTEN BY EOV-
*                                           VOLUME SWITCH        Y02113
*                                   BIT 2 - RECORD WRITTEN BY EOV-
*                                           OUT OF SPACE         Y02113
*                                   BITS 3-7 RESERVED            Y02113
SMF64DTY DC    BL1'0'               DATA SET TYPE                Y02113
*                                   BIT MEANING WHEN SET         Y02113
*                                   BIT 0 - DATA SET             Y02113
*                                   BIT 1 - INDEX                Y02113
*                                   BITS 2-7 - RESERVED          Y02113
SMF64CNM DC    CL44' '              CATALOG NAME                 Y02113
SMF64DNM DC    CL44' '              DATA SET NAME                Y02113
SMF64NTR DC    BL2'0'               NUMBER OF TRACKS REQUIRED    Y02113
SMF64CHR DC    BL4'0'               CURRENT HIGH RBA             Y02113
SMF64ESL DC    BL2'0'               EXTENT SEGMENT LENGTH        Y02113
SMF64FEX EQU   *                    EXTENT TABLE - ONE PER VOLUMEY02113
*                                   ONLINE AT TIME RECORD WRITTENY02113
SMF64FCC DC    BL4'0'               FROM CCHH                    Y02113
SMF64TCC DC    BL4'0'               TO CCHH                      Y02113
SMF64VSN DC    CL6' '               VOLUME SERIAL NUMBER         Y02113
SMF64CUU DC    BL2'0'               CHANNEL AND UNIT CCUU        Y02113
SMF64IND DC    BL2'0'               MODULE/SPINDLE ID            Y02113
SMF64UTY DC    BL4'0'               UNIT TYPE - UCBTYPE          Y02113
SMF64RV1 DC    CL4' '               RESERVED                     Y02113
         ORG   SMF64FEX                                          Y02113
SMF64STS EQU   *                    DATA SET STATISTICS AT OPEN  Y02113
*                                   TIME                         Y02113
SMF64SLN DC    BL4'0'               STATISTICS SEGMENT LENGTH    Y02113
SMF64NIL DC    BL4'0'               NUMBER INDEX LEVEL           Y02113
SMF64NEX DC    BL4'0'               NUMBER EXTENTS               Y02113
SMF64NLR DC    BL4'0'               NUMBER LOGICAL RECORDS       Y02113
SMF64NDE DC    BL4'0'               NUMBER DELETES               Y02113
SMF64NIN DC    BL4'0'               NUMBER INSERTS               Y02113
SMF64NUP DC    BL4'0'               NUMBER UPDATES               Y02113
SMF64NRE DC    BL4'0'               NUMBER RETRIEVES             Y02113
SMF64NFS DC    BL4'0'               NUMBER FREE SPACE-UNUSED CI'SY02113
SMF64NCS DC    BL4'0'               NUMBER CI SPLITS             Y02113
SMF64NAS DC    BL4'0'               NUMBER CA SPLITS             Y02113
SMF64NEP DC    BL4'0'               NUMBER EXCPS COUNT           Y02113
* DATA SET STATISTICS FOR THIS OPEN                              Y02113
SMF64DIL DC    BL4'0'               NUMBER INDEX LEVEL           Y02113
SMF64DEX DC    BL4'0'               NUMBER EXTENTS               Y02113
SMF64DLR DC    BL4'0'               NUMBER LOGICAL RECORDS       Y02113
SMF64DDE DC    BL4'0'               NUMBER DELETES               Y02113
SMF64DIN DC    BL4'0'               NUMBER INSERTS               Y02113
SMF64DUP DC    BL4'0'               NUMBER UPDATES               Y02113
SMF64DRE DC    BL4'0'               NUMBER RETRIEVES             Y02113
SMF64DFS DC    BL4'0'               NUMBER FREE SPACE            Y02113
SMF64DCS DC    BL4'0'               NUMBER CI SPLITS             Y02113
SMF64DAS DC    BL4'0'               NUMBER CA SPLITS             Y02113
SMF64DEP DC    BL4'0'               NUMBER EXCPS COUNT           Y02113
SMF64DBS DC    BL4'0'               PHYSICAL BLOCK SIZE        @ZA05513
SMF64DCI DC    BL4'0'               CONTROL INTERVAL SIZE      @ZA05513
SMF64DLS DC    BL4'0'               MAX. LOGICAL RECORD LNG.   @ZA05513
SMF64DKL DC    BL2'0'               KEY LENGTH                 @ZA25191
SMF64DDN DC    CL8' '               DD NAME                    @ZA05513
         AGO   .CONTB                                            Y02113
.IFAS067 ANOP
         EJECT
* THIS RECORD IS WRITTEN WHEN A VSAM CATALOG ENTRY IS DELETED
*
         DS    0F
SMFRCD67 EQU   *         HEADER SEGMENT
SMF67LEN DS    BL2'0'    RECORD LENGTH
SMF67SEG DS    BL2'0'    SEGMENT DESCRIPTOR
SMF67FLG DS    BL1'0'    HEADER FLAG BYTE
SMF67RTY DS    BL1'0'    RECORD TYPE 67
SMF67TME DS    BL4'0'    TOD USING FORMAT FROM TIME MACRO W/BIN INTERVL
SMF67DTE DS    PL4'0000' DATE IN PACKED DECIMAL FORMAT: 00YYDDDF
SMF67SID DS    CL2' '    SYSTEM IDENTIFICATION
SMF67SMI DS    CL2' '    SYSTEM MODEL IDENTIFIER
SMF67JBN DS    CL8' '    JOB NAME
SMF67RST DS    BL4'0'    READER START TIME (IN 100THS SECONDS)
SMF67RSD DS    PL4'0000' READER START DATE
SMF67UIF DS    CL8' '    USER IDENTIFICATION FIELD
SMF67FDT DS    BL1'0'    FUNCTION AND DATA SET TYPE INDICATOR
*                        BIT0 - UNCATALOGED
*                        BIT1 - SCRATCHED
*                        BIT 2-7 - RESERVED
SMF67IOD DS    BL1'0'    INDICATOR OF OBJECT DELETED
*                        BIT0 - CLUSTER
*                        BIT1 - DATA COMPONENT
*                        BIT2 - INDEX COMPONENT
*                        BIT3 - CATALOG
*                        BIT4 - NON-VSAM DATA SET
*                        BIT5 - GENERATION DATA GROUP
*                        BIT6 - ALIAS
*                        BIT7 - RESERVED
SMF67CNM DS    CL44' '   NAME OF CATALOG IN WHICH ENTRY WAS DEFINED
SMF67DEN DS    CL44' '   NAME OF ENTRY THAT WAS DELETED
SMF67RSZ DS    BL2'0'    SIZE OF CATALOG RECORD THAT DEFINED THE ENTRY
SMF67CRC DS    0H        CATALOG RECORD
        AGO   .CONTB
.IFAS068 ANOP                                                    Y02113
         EJECT                                                   Y02113
* THIS DSECT DEFINES THE FORMAT FOR RECORD TYPE 68 (VSAM DATA    Y02113
* SET RENAMED).  RECORD LENGTH IS 170 BYTES                      Y02113
         DS    0F                   ALIGN TO FULLWORD BOUNDARY   Y02113
SMFRCD68 EQU   *                    HEADER SEGMENT               Y02113
SMF68LEN DS    BL2'0'               RECORD LENGTH                Y02113
SMF68SEG DS    BL2'0'               SEGMENT DESCRIPTOR           Y02113
SMF68FLG DC    BL1'0'               HEADER FLAG BYTE             Y02113
SMF68RTY DC    BL1'0'               RECORD TYPE 68               Y02113
SMF68TME DC    BL4'0'               TOD USING FORMAT FROM TIME   Y02113
*                                   MACRO WITH BIN INTERVAL      Y02113
SMF68DTE DC    PL4'0000'            DATE IN PACKED DECIMAL FORMATY02113
*                                   00YYDDDF (F IS THE SIGN)     Y02113
SMF68SID DC    CL4' '               SYSTEM IDENTIFICATION        Y02113
SMF68JBN DC    CL8' '              JOBNAME                       Y02113
SMF68RST DC    BL4'0'              READER START TIME (IN 100THS  Y02113
*                                  SECONDS)                      Y02113
SMF68RSD DC    PL4'0000'            READER START DATE            Y02113
SMF68UIF DC    CL8' '               USER IDENTIFICATION FIELD    Y02113
SMF68CNM DC    CL44' '              CATALOG NAME                 Y02113
SMF68ONM DC    CL44' '              OLD DATA SET NAME            Y02113
SMF68NNM DC    CL44' '              NEW DATA SET NAME            Y02113
         AGO   .CONTB                                            Y02113
.IFAS069 ANOP                                                    Y02113
         EJECT                                                   Y02113
* THIS DSECT DEFINES THE FORMAT FOR RECORD TYPE 69 (VSAM DATA    Y02113
* SPACE DEFINED OR DELETED).  RECORD LENGTH IS 102 BYTES.        Y02113
         DS    0F                  ALIGN TO FULLWORD BOUNDARY    Y02113
SMFRCD69 EQU   *                   HEADER SEGMENT                Y02113
SMF69LEN DS    BL2'0'              RECORD LENGTH                 Y02113
SMF69SEG DS    BL2'0'              SEGMENT DESCRIPTOR            Y02113
SMF69FLG DC    BL1'0'              HEADER FLAG BYTE              Y02113
SMF69RTY DC    BL1'0'              RECORD TYPE 69                Y02113
SMF69TME DC    BL4'0'              TOD, USING FORMAT FROM TIME   Y02113
*                                  MACRO WITH BIN INTERVAL       Y02113
SMF69DTE DC    PL4'0000'           DATE IN PACKED DECIMAL FORM   Y02113
*                                  00YYDDDF (F IS THE SIGN)      Y02113
SMF69SID DC    CL4' '              SYSTEM IDENTIFICATION         Y02113
SMF69JBN DC    CL8' '              JOBNAME                       Y02113
SMF69RST DC    BL4'0'              READER START TIME IN 100THS   Y02113
*                                  SECONDS                       Y02113
SMF69RSD DC    PL4'0000'           READER START DATE             Y02113
SMF69UIF DC    CL8' '              USER IDENTIFICATION FIELD     Y02113
SMF69CUU DC    BL2'0'              CHANNEL AND UNIT CCUU         Y02113
SMF69IND DC    BL2'0'              MODULE/SPINDLE ID             Y02113
SMF69NDS DC    BL2'0'              NUMBER OF EXTENT ON VOLUME    Y02113
SMF69NUC DC    BL2'0'              NUMBER UNALLOCATED CYLS ON    Y02113
*                                  VOLUME                        Y02113
SMF69NUT DC    BL2'0'              NUMBER UNALLOCATED TRKS. ON   Y02113
*                                  VOLUME-NOT IN UNAL CYL'S      Y02113
SMF69LNC DC    BL2'0'              LARGEST # FREE CONTG. CYLS    Y02113
SMF69LNT DC    BL2'0'              LARGEST # FREE CONTG. TRKS    Y02113
SMF69CNM DC    CL44' '             CATALOG NAME                  Y02113
SMF69VSR DC    CL6' '              VOLUME SERIAL                 Y02113
         AGO   .CONTB                                            Y02113
         MEND            */
 %IFAL62: IF IFAR62='' %THEN %GOTO IFAL63;
    DCL 1 SMFRCD62 BASED(SMF62PTR) BDY(WORD),
 /* RECORD TYPE 62 - VSAM DATA SET OPENED                            */
 /* WRITTEN AFTER THE SUCCESSFUL OR UNSUCCESSFUL OPENING OF A VSAM DS*/
 /* OR INDEX                                                         */
         3 SMF62LEN FIXED(15),    /* RDW RECORD LENGTH               */
         3 SMF62SEG FIXED(15),    /* RDW SEGMENT DESCRIPTOR          */
         3 SMF62FLG BIT(8),       /* OPERATING ENVIRONMENT           */
         3 SMF62RTY FIXED(8),     /* RECORD TYPE 62                  */
         3 SMF62TME FIXED(31) BDY(BYTE), /* TOD RECORD WRITTEN       */
         3 SMF62DTE CHAR(4),      /* DATE RECORD WRITTEN             */
         3 SMF62SID CHAR(4),      /* SYSTEM ID FROM INSTALLATION     */
         3 SMF62JBN CHAR(8),      /* JOB NAME                        */
         3 SMF62RST FIXED(31) BDY(BYTE), /* TOD READER START(.01 SEC)*/
         3 SMF62RSD CHAR(4),      /* READER START DATE               */
         3 SMF62UIF CHAR(8),      /* USER IDENTIFICATION FIELD       */
         3 SMF62IND BIT(32),      /* INDICATORS                      */
          5 SMF62OOK BIT(1),      /* OPEN WAS SUCCESSFUL             */
          5 SMF62SVL BIT(1),      /* SECURITY VIOLATION              */
          5 * BIT(30),            /* RESV                            */
         3 SMF62CNM CHAR(44),     /* CATALOG DATA SET NAME           */
         3 SMF62CVS CHAR(6),      /* CATALOG VOLUME SERIAL NUMBER    */
         3 SMF62DNM CHAR(44),     /* DATA SET NAME                   */
         3 SMF62VCT FIXED(15);    /* # OF VOLUMES                    */
    DCL 1 SMF62VLT BASED BDY(BYTE), /* VOLUME LIST, ENTRY FOR EACH
                                       VOLUME OF DATA SET            */
         3 SMF62VSR CHAR(6),      /* VOLUME SERIAL NUMBER            */
         3 SMF62DTY CHAR(4);      /* DEVICE TYPE CODE                */
 %IFAL63: IF IFAR63='' %THEN %GOTO IFAL64;
    DCL 1 SMFRCD63 BASED(SMF63PTR) BDY(WORD),
 /* RECORD TYPE 63 - VSAM CLUSTER OR COMPONENT CATALOGED             */
 /* WRITTEN AFTER A VSAM CLUSTER OR COMPONENT IS DEFINED, AND WHEN   */
 /* THE DEFINITION IS ALTERED.                                       */
         3 SMF63LEN FIXED(15),    /*RDW RECORD LENGTH                */
         3 SMF63SEG FIXED(15),    /*RDW SEGMENT DESCRIPTOR           */
         3 SMF63FLG BIT(8),       /*OPERATING ENVIRONMENT            */
         3 SMF63RTY FIXED(8),     /*RECORD TYPE 63                   */
         3 SMF63TME FIXED(31) BDY(BYTE), /*TOD RECORD WRITTEN        */
         3 SMF63DTE CHAR(4),      /*DATE RECORD WRITTEN              */
         3 SMF63SID CHAR(2),      /*SYSTEM ID FROM INSTALLATION      */
         3 SMF63SMI CHAR(2),      /*SYSTEM MODEL IDENTIFIER          */
         3 SMF63JBN CHAR(8),      /*JOB NAME                         */
         3 SMF63RST FIXED(31) BDY(BYTE), /*READER START TOD(.01 SEC) */
         3 SMF63RSD CHAR(4),      /*READER START DATE                */
         3 SMF63UIF CHAR(8),      /*USER IDENTIFICATION FIELD        */
         3 SMF63FDT BIT(8),       /* FUNCTION AND DS TYPE INDICATOR
                                    BIT MEANING WHEN SET
                                    BIT0 - NEW DEFINITION
                                    BIT1 - ALTERED DEFINITION
                                    BIT2-7 - RESERVED                */
         3 SMF63TYP BIT(8),       /*TYPE OF ENTRY
                                    BIT MEANING WHEN SET
                                    BIT0 - CLUSTER
                                    BIT1 - VSAM DATA COMPONENT
                                    BIT2 - INDEX COMPONENT
                                    BIT3 - CATALOG
                                    BIT4 - NON-VSAM DATA SET
                                    BIT5 - GENERATION DATA GROUP
                                    BIT6 - ALIAS
                                    BIT7 - RESERVED                  */
         3 SMF63NSZ FIXED(15),    /*SIZE OF NEW CATALOG RECORD       */
         3 SMF63OSZ FIXED(15),    /*SIZE OF OLD CATALOG RECORD       */
         3 SMF63CNM CHAR(44),     /*NAME OF CATLG IN WHICH ENTRY
                                    IS DEFINED                       */
         3 SMF63ENM CHAR(44);     /*ENTRY NAME                       */
    DCL SMF63NCR BASED;             /*NEW CATALOG RECORD             */
    DCL SMF63OCR BASED;             /*OLD CATALOG RECORD             */
 %IFAL64: IF IFAR64='' %THEN %GOTO IFAL65;
    DCL 1 SMFRCD64 BASED(SMF64PTR) BDY(WORD),
 /* RECORD TYPE 64 - VSAM CLOSE/EOV STATUS                           */
 /* WRITTEN WHEN A VSAM DS IS CLOSED, REACHES EOV OR NO MORE SPACE   */
 /* IS AVAILABLE ON A VOLUME                                         */
         3 SMF64LEN FIXED(15),    /* RDW RECORD LENGTH               */
         3 SMF64SEG FIXED(15),    /* RDW SEGMENT DESCRIPTOR          */
         3 SMF64FLG BIT(8),       /* OPERATING ENVIRONMENT           */
         3 SMF64RTY FIXED(8),     /* RECORD TYPE 64                  */
         3 SMF64TME FIXED(31) BDY(BYTE), /* TOD RECORD WRITTEN       */
         3 SMF64DTE CHAR(4),      /* DATE RECORD WRITTEN             */
         3 SMF64SID CHAR(4),      /* SYSTEM ID FROM INSTALLATION     */
         3 SMF64JBN CHAR(8),      /* JOB NAME                        */
         3 SMF64RST FIXED(31) BDY(BYTE), /* READER START TOD(.01 SEC)*/
         3 SMF64RSD CHAR(4),      /* READER START DATE               */
         3 SMF64UIF CHAR(8),      /* USER IDENTIFICATION FIELD       */
         3 SMF64RIN BIT(8),       /* RECORD INDICATORS               */
          5 SMF64CLO BIT(1),      /* WRITTEN BY CLOSE                */
          5 SMF64VSW BIT(1),      /* WRITTEN BY EOV-VOL SWITCH       */
          5 SMF64OSP BIT(1),      /* WRITTEN BY EOV-OUT OF SPACE     */
          5 * BIT(5),             /* RESV                            */
         3 SMF64DTY BIT(8),       /* DATA SET TYPE                   */
          5 SMF64DTA BIT(1),      /* DATA                            */
          5 SMF64IDX BIT(1),      /* INDEX                           */
          5 * BIT(6),             /* RESV                            */
         3 SMF64CNM CHAR(44),     /* CATALOG NAME                    */
         3 SMF64DNM CHAR(44),     /* DATA SET NAME                   */
         3 SMF64NTR FIXED(15),    /* # OF TRACKS REQUIRED            */
         3 SMF64CHR CHAR(4),      /* CURRENTLY HIGH RBA              */
         3 SMF64ESL FIXED(15);    /* EXTENT SEGMENT LENGTH           */
    DCL 1 SMF64FEX BASED,         /* EXTENT TABLE, ONE PER VOLUME
                                  ONLINE AT TIME TYPE 64 WRITTEN     */
         3 SMF64FCC CHAR(4),      /* THE FROM CCHH                   */
         3 SMF64TCC CHAR(4),      /* THE TO CCHH                     */
         3 SMF64VSN CHAR(6),      /* VOLUME SERIAL NUMBER            */
         3 SMF64CUU CHAR(2),      /* CHANNEL AND UNIT CCUU           */
         3 SMF64IND CHAR(2),      /* MODULE/SPINDLE ID               */
         3 SMF64UTY CHAR(4),      /* UNIT TYPE                       */
         3 * CHAR(4);             /* RESV                            */
    DCL 1 SMF64STS BASED BDY(WORD), /* DATA SET STATISTICS           */
                                  /* STAT'S AT OPEN TIME             */
         3 SMF64SLN FIXED(31),    /* STAT SEGMENT LENGTH             */
         3 SMF64NIL FIXED(31),    /* # OF INDEX LEVELS               */
         3 SMF64NEX FIXED(31),    /* # OF EXTENTS                    */
         3 SMF64NLR FIXED(31),    /* # OF LOGICAL RECORDS            */
         3 SMF64NDE FIXED(31),    /* # OF DELETES                    */
         3 SMF64NIN FIXED(31),    /* # OF INSERTS                    */
         3 SMF64NUP FIXED(31),    /* # OF UPDATES                    */
         3 SMF64NRE FIXED(31),    /* # OF RETRIEVES                  */
         3 SMF64NFS FIXED(31),    /* # OF FREE SPACE(UNUSED CI'S)    */
         3 SMF64NCS FIXED(31),    /* # OF CI SPLITS                  */
         3 SMF64NAS FIXED(31),    /* # OF CA SPLITS                  */
         3 SMF64NEP FIXED(31),    /* # OF EXCPS                      */
                                  /* STAT'S FOR THIS OPEN            */
         3 SMF64DIL FIXED(31),    /* # OF INDEX LEVELS               */
         3 SMF64DEX FIXED(31),    /* # OF EXTENTS                    */
         3 SMF64DLR FIXED(31),    /* # OF LOGICAL RECORDS            */
         3 SMF64DDE FIXED(31),    /* # OF DELETES                    */
         3 SMF64DIN FIXED(31),    /* # OF INSERTS                    */
         3 SMF64DUP FIXED(31),    /* # OF UPDATES                    */
         3 SMF64DRE FIXED(31),    /* # OF RETRIEVES                  */
         3 SMF64DFS FIXED(31),    /* # OF FREE SPACE                 */
         3 SMF64DCS FIXED(31),    /* # OF CI SPLITS                  */
         3 SMF64DAS FIXED(31),    /* # OF CA SPLITS                  */
         3 SMF64DEP FIXED(31),    /* # OF EXCPS                      */
         3 SMF64DBS FIXED(31),    /* PHYSICAL BLOCKSIZE      @ZA05513*/
         3 SMF64DCI FIXED(31),    /* CONTROL INTERVAL SIZE   @ZA05513*/
         3 SMF64DLS FIXED(31),    /* MAX. LOGICAL REC LENGTH @ZA05513*/
         3 SMF64DKL FIXED(15),    /* KEY LENGTH              @ZA25191*/
         3 SMF64DDN CHAR(8);      /* DD NAME                 @ZA05513*/
 %IFAL65: ;
 %IFAL67: IF IFAR67='' %THEN %GOTO IFAL68;
    DCL 1 SMFRCD67 BASED(SMF67PTR) BDY(WORD),
 /* RECORD TYPE 67 - VSAM ENTRY DELETED                              */
 /* WRITTEN WHEN A VSAM CATALOG ENTRY IS DELETED                     */
         3 SMF67LEN FIXED(15),    /*RDW RECORD LENGTH                */
         3 SMF67SEG FIXED(15),    /*RDW SEGMENT DESCRIPTOR           */
         3 SMF67FLG BIT(8),       /*OPERATING ENVIRONMENT            */
         3 SMF67RTY FIXED(8),     /*RECORD TYPE 67                   */
         3 SMF67TME FIXED(31) BDY(BYTE), /*TOD RECORD WRITTEN        */
         3 SMF67DTE CHAR(4),      /*DATE RECORD WRITTEN              */
         3 SMF67SID CHAR(2),      /*SYSTEM ID FROM INSTALLATION      */
         3 SMF67SMI CHAR(2),      /*SYSTEM MODEL IDENTIFIER          */
         3 SMF67JBN CHAR(8),      /*JOB NAME                         */
         3 SMF67RST FIXED(31) BDY(BYTE), /*READER START TOD(.01 SEC) */
         3 SMF67RSD CHAR(4),      /*READER START DATE                */
         3 SMF67UIF CHAR(8),      /*USER IDENTIFICATION FIELD        */
         3 SMF67FDT BIT(8),       /*FUNCTION AND DS TYPE INDICATOR
                                    BIT MEANING WHEN SET
                                    BIT0 - UNCATALOGED
                                    BIT1 - SCRATCHED
                                    BIT2-7 - RESERVED                */
         3 SMF67IOD BIT(8),       /*INDICATOR OF OBJECT DELETED
                                    BIT MEANING WHEN SET
                                    BIT0 - CLUSTER
                                    BIT1 - DATA COMPONENT
                                    BIT2 - INDEX COMPONENT
                                    BIT3 - CATALOG
                                    BIT4 - NON-VSAM DATA SET
                                    BIT5 - GENERATION DATA GROUP
                                    BIT6 - ALIAS
                                    BIT7 - RESERVED                  */
         3 SMF67CNM CHAR(44),     /*NAME OF CATALOG IN WHICH ENTRY
                                    WAS DEFINED                      */
         3 SMF67DEN CHAR(44),     /*NAME OF ENTRY THAT WAS DELETED   */
         3 SMF67RSZ FIXED(15);    /*SIZE OF CATALOG RECORD THAT
                                    DEFINED THE ENTRY                */
    DCL SMF67CRC BASED BDY(WORD);   /*CATALOG RECORD                 */
 %IFAL68: IF IFAR68='' %THEN %GOTO IFAL69;
    DCL 1 SMFRCD68 BASED(SMF68PTR) BDY(WORD),
 /* RECORD TYPE 68 - VSAM DATA SET RENAME                            */
 /* WRITTEN WHEN A VSAM DATA SET OR INDEX IS RENAMED                 */
         3 SMF68LEN FIXED(15),    /* RDW RECORD LENGTH               */
         3 SMF68SEG FIXED(15),    /* RDW SEGMENT DESCRIPTOR          */
         3 SMF68FLG BIT(8),       /* OPERATING ENVIRONMENT           */
         3 SMF68RTY FIXED(8),     /* RECORD TYPE 68                  */
         3 SMF68TME FIXED(31) BDY(BYTE), /* TOD RECORD WRITTEN       */
         3 SMF68DTE CHAR(4),      /* DATE RECORD WRITTEN             */
         3 SMF68SID CHAR(4),      /* SYSTEM ID FROM INSTALLATION     */
         3 SMF68JBN CHAR(8),      /* JOB NAME                        */