*        %GOTO IFAL07;    /*
         MACRO
&NAME    IFASMFR1 &RECTYPE
.* *                                                                  *
.* * MACMEAN IFASMFR1 MEANS SYSTEM MANAGEMENT FACILITY RECORD MAPPING *
.* * MACCOMP Y-2 SC102/BL27P                                          *
.* * MACSTAT Y-2 73298/42020                                          *
.* * METHOD OF ACCESS                                                 *
.* *  PL/S - INCLUDE MACRO FROM LIBRARY                               *
.* *          EXAMPLE - %INCLUDE SYSLIB(IFASMFR1)                     *
.* *                                                                  *
.* *          THIS MACRO EXPANDS RECORDS 7-19. RECORD 15 CAN BE       *
.* *          SPECIFIED BUT TYPE 14 IS CREATED FOR IT.                *
.* *                                                                  *
.* *
.* THIS IS AN SMF MACRO WHICH BUILDS SMF RECORDS 7-19. THE REQUIRED
.* FORMAT IS -
.*
.*       IFASMFR1 &RECTYPE
.**********************************************************************
         AIF   (&RECTYPE EQ 7).IFAS007
         AIF   (&RECTYPE EQ 8).IFAS008
         AIF   (&RECTYPE EQ 9).IFAS009
         AIF   (&RECTYPE EQ 10).IFAS010
         AIF   (&RECTYPE EQ 11).IFAS011
         AIF   (&RECTYPE EQ 14 OR &RECTYPE EQ 15).IFAS014
         AIF   (&RECTYPE EQ 17).IFAS017
         AIF   (&RECTYPE EQ 18).IFAS018
         AIF   (&RECTYPE EQ 19).IFAS019
.E5      ANOP
         SPACE 3
         MNOTE 4,'&RECTYPE INVALID RECORD TYPE SPECIFIED'
.CONTB   ANOP
         MEXIT
.IFAS007 ANOP
         EJECT
* THIS RECORD IS WRITTEN WHEN AN SMF DATA SET BECOMES AVAILABLE
* FOLLOWING THE UNAVAILABILITY OF AN SMF DATA SET. RECORD LENGTH IS
* 24 BYTES.
*
         DS    0F        ALIGN TO FULL WORD BOUNDARY
SMFRCD7  EQU   *         HEADER SEGMENT
SMF7LEN  DS    BL2'0'    RECORD LENGTH
SMF7SEG  DS    BL2'0'    SEGMENT DESCRIPTOR
SMF7FLG  DC    BL1'0'    HEADER FLAG BYTE
SMF7RTY  DC    BL1'0'    RECORD TYPE 7
SMF7TME  DC    BL4'0'    TOD, USING FORMAT FROM TIME MACRO W/BIN. INTVL
SMF7DTE  DC    PL4'0000'      DATE IN PACKED DECIMAL FORM: 00YYDDDF
SMF7SID  DC    CL4' '    SYSTEM IDENTIFICATION                   Y02901
SMF7NRO  DC    BL2'0'    NUMBER OF SMF RECORDS OMITTED FROM DATA SET
SMF7STM  DC    BL4'0'    STARTING TIME IN HUNDREDTHS OF SECONDS AT
*                        WHICH NO DATA SET WAS AVAILABLE FOR RECORDING
*                        SMF RECORDS
SMF7STD  DC    PL4'0000' STARTING DATE AT WHICH NO DATA SET WAS
*                        AVAILABLE FOR RECORDING SMF RECORDS
         AGO   .CONTB
.IFAS008 ANOP
         EJECT
* THIS RECORD IS WRITTEN AFTER COMPLETION OF IPL, FOLLOWING THE SET
* DATE COMMAND. RECORD LENGTH IS VARIABLE. MINIMUM OF 16 BYTES.
*
         DS    0F        ALIGN TO FULL WORD BOUNDARY
SMFRCD8  EQU   *         HEADER SEGMENT
SMF8LEN  DS    BL2'0'    RECORD LENGTH
SMF8SEG  DS    BL2'0'    SEGMENT DESCRIPTOR
SMF8FLG  DC    BL1'0'    HEADER FLAG BYTE
SMF8RTY  DC    BL1'0'    RECORD TYPE 8
SMF8TME  DC    BL4'0'    TOD USING FORMAT FROM TIME MACRO W/BIN. INTVL.
SMF8DTE  DC    PL4'0000' DATE IN PACKED DEC.FORMAT: OOYYDDDF
SMF8SID  DC    CL4' '    SYSTEM IDENTIFICATION                   Y02901
SMF8LENN DC    BL2'0'    LENGTH OF FIELD
*        FOR EACH DEVICE ONLINE THERE IS A FOUR-BYTE ENTRY HAVING THE
*        FOLLOWING FORMAT:
SMF8IODV DS    0C        RESERVE FOUR BYTE AREA FOR EACH DEVICE
*                        BYTE 0 - DEVICE CLASS
*                             1 - UNIT TYPE
*                             2 - CHANNEL ADDRESS
*                             3 - UNIT ADDRESS
SMF8VDV  EQU   X'80'      VIRTUAL INDICATOR                    @Y30AQPF
         AGO   .CONTB
.IFAS009 ANOP
         EJECT
* THIS RECORD IS WRITTEN WHEN A DEVICE IS VARIED ONLINE.
* RECORD LENGTH IS VARIABLE. MINIMUM OF 20 BYTES.
*
         DS    0F        ALIGN TO FULL WORD BOUNDARY
SMFRCD9  EQU   *         HEADER SEGMENT
SMF9LEN  DS    BL2'0'    RECORD LENGTH
SMF9SEG  DS    BL2'0'    SEGMENT DESCRIPTOR
SMF9FLG  DC    BL1'0'    HEADER FLAG BYTE
SMF9RTY  DC    BL1'0'    RECORD TYPE 9
SMF9TME  DC    BL4'0'    TOD USING FORMAT FROM TIME MACRO W/BIN. INTVL.
SMF9DTE  DC    PL4'0000' DATE IN PACKED DEC. FORM: OOYYDDDF
SMF9SID  DC    CL4' '    SYSTEM IDENTIFICATION                   Y02901
SMF9LENN DC    BL2'0'    LENGTH OF THIS FIELD PLUS REST OF RECORD
SMF9DVAD DS    0C        DEVICES BEING ADDED TO THE I/O CONFIGURATION
*                        (VARIABLE,BINARY)
*                        FOR EACH DEVICE BEING ADDED THERE IS A FOUR
*                        BYTE ENTRY HAVING THE FOLLOWING FORMAT:
*                        BYTE 0-DEVICE CLASS
*                             1-UNIT TYPE
*                             2-CHANNEL ADDRESS
*                             3-UNIT ADDRESS
SMF9VDV  EQU   X'80'      VIRTUAL INDICATOR                    @Y30AQPF
         AGO   .CONTB
.IFAS010 ANOP
         EJECT
* THIS RECORD IS WRITTEN AFTER SUCCESSFUL DEVICE ALLOCATION RECOVERY.
* RECORD LENGTH IS VARIABLE. MINIMUM 0F 44 BYTES.
*
         DS    0F        ALIGN TO FULL WORD BOUNDARY
SMFRCD10 EQU   *         HEADER SEGMENT
SMF10LEN DS    BL2'0'    RECORD LENGTH
SMF10SEG DS    BL2'0'    SEGMENT DESCRIPTOR
SMF10FLG DC    BL1'0'    HEADER FLAG BYTE
SMF10RTY DC    BL1'0'    RECORD TYPE 10
SMF10TME DC    BL4'0'    TOD USING FORMAT FROM TIME MACRO W/BIN. INTVL.
SMF10DTE DC    PL4'0000' DATE IN PACKED DEC. FORM: OOYYDDDF
SMF10SID DC    CL4' '    SYSTEM IDENTIFICATION                   Y02901
SMF10JBN DC    CL8' '    JOB NAME
SMF10RST DC    BL4'0'    READER START TIME
SMF10RSD DC    PL4'0000' READER START DATE
SMF10UIF DC    CL8' '    USER  IDENTIFICATION FIELD
SMF10LN  DC    BL2'0'    LENGTH OF THIS FIELD PLUS REST OF RECORD
SMF10DEV DS    0C        DEVICES BEING MADE AVAILABLE (VARIABLE)
*
*                        FOR EACH DEVICE THERE IS A FOUR BYTE ENTRY
*                        HAVING THE FOLLOWING FORMAT:
*                        BYTE 0-DEVICE CLASS
*                             1-UNIT TYPE
*                             2-CHANNEL ADDRESS
*                             3-UNIT ADDRESS
SMF10VDV EQU   X'80'     VIRTUAL INDICATOR                     @Y30AQPF
         AGO   .CONTB
.IFAS011 ANOP
         EJECT
* THIS RECORD IS WRITTEN WHEN A DEVICE IS VARIED OFFLINE.
* RECORD LENGTH IS VARIABLE. MINIMUM OF 20 BYTES.
*
         DS    0F        ALIGN TO FULL WORD BOUNDARY
SMFRCD11 EQU   *         HEADER SEGMENT
SMF11LEN DS    BL2'0'    RECORD LENGTH
SMF11SEG DS    BL2'0'    SEGMENT DESCRIPTOR
SMF11FLG DC    BL1'0'    HEADER FLAG BYTE
SMF11RTY DC    BL1'0'    RECORD TYPE 11
SMF11TME DC    BL4'0'    TOD USING FORMAT FROM TIME MACRO W/BIN. INTVL.
SMF11DTE DC    PL4'0000' DATE IN PACKED DEC. FORM: OOYYDDDF
SMF11SID DC    CL4' '    SYSTEM IDENTIFICATION                   Y02901
SMF11LN  DC    BL2'0'    LENGTH OF THIS FIELD PLUS REST OF RECORD
SMF11DEV DS    0C        DEVICES BEING REMOVED FROM I/O CONFIGURATION
*
*                        FOR EACH DEVICE BEING REMOVED, THERE IS A
*                        FOUR BYTE ENTRY HAVING THE FOLLOWING FORMAT:
*                        BYTE O-DEVICE CLASS
*                             1-UNIT TYPE
*                             2-CHANNEL ADDRESS
*                             3-UNIT ADDRESS
SMF11VDV EQU   X'80'     VIRTUAL INDICATOR                     @Y30AQPF
         AGO   .CONTB
.IFAS014 ANOP
         EJECT
* THIS RECORD WRITTEN WHEN A USER'S DATA SET IS CLOSED OR PROCESSED
* BY EOV. LENGTH IS VARIABLE, MINIMUM OF 288 BYTES.
* RECORD TYPE: 14-DATA SET OPENED FOR INPUT/RDBACK
*              15-DATA SET OPENED FOR OUTPUT/INOUT/OUTIN/UPDAT
         DS    0F        ALIGN TO FULL WORD BOUNDARY
SMF14HDR EQU   *         HEADER SEGMENT FOR RECORD TYPE 14/15
SMF14LEN DS    BL2'0'    RECORD LENGTH
SMF14SEG DS    BL2'0'    SEGMENT DESCRIPTOR
SMF14FLG DS    BL1'0'    HEADER FLAG BYTE
SMF14RTY DS    BL1'0'    RECORD TYPE 14
SMF14TME DS    BL4'0'    TOD, USING TIME MACRO W/BIN. INTVL.
SMF14DTE DS    PL4'0000' DATE, PACKED/DEC FORM; 00YYDDDF
SMF14SID DS    CL4' '    SYSTEM ID                               Y02901
SMF14JBN DS    CL8' '    JOB NAME
SMF14RST DS    BL4'0'    READER START TIME
SMF14RSD DS    PL4'0000' READER START DATE, PK/DEC FORM: 00YYDDDF
SMF14UID DS    CL8' '    USERID
SMF14RIN DS    BL2'0'    RECORD INDICATORS:
SMF14RV0 EQU   128       RESERVED
SMF14EOV EQU   64        RECORD WRITTEN BY EOV
SMF14DAD EQU   32        DASD DEVICE
SMF14TDS EQU   16        TEMPORARY DATA SET
SMF14DDA EQU   8         DCBDSORG = DA
SMF14IS  EQU   4         DCBDSORG = IS
SMF14JIS EQU   2         JFCDSORG = IS
SMF14VIO EQU   1         VIO DATA SET ACCESS                     Y02132
*        BITS 8 - 15     RESERVED
SMF14SDC DS    BL1'0'    SIZE OF DCB/DEB SEGMENT
SMF14NUC DS    BL1'0'    NO. UCB SEGMENTS
SMF14SUC DS    BL1'0'    SIZE OF EACH UCB SEGMENT
SMF14SET DS    BL1'0'    SIZE OF EXTENSION SEGMENT
SMF14RV1 DS    BL4'0'    RESERVED
SMFTIOT  EQU   *         TIOT SEGMENT (FROM DD ENTRY)
SMFTIOE1 DS    BL1'0'    TIOELNGH
SMFTIOE2 DS    BL1'0'    TIOESSTA
SMFTIOE3 DS    BL1'0'    TIOEWTCT
SMFTIOE4 DS    BL1'0'    TIOELINK
SMFTIOE5 DS    CL8' '    TIOEDDNM
SMFTIOE6 DS    BL3'0'    TIOEJFCB
SMFTIOE7 DS    BL1'0'    TIOESTTC
*
SMFJFCB1 DS    XL176'0'  JFCB SEGMENT (ENTIRE JFCB)
*
SMFDCBDE EQU   *         DCB/DEB SEGMENT (TAPE AND DASD)
SMFDCBOR DS    BL2'0'    DCBDSORG
SMFDCBRF DS    BL1'0'    DCBRECFM
SMFDCBMF DS    BL2'0'    DCBMACRF
SMFDCBFL DS    BL1'0'    DCBOFLGS
SMFDCBOP DS    BL1'0'    DCBOPTCD
SMF14RV2 DS    BL1'0'    RESERVED
SMFDEBFL DS    BL1'0'    DEBOFLGS
SMFDEBOP DS    BL1'0'    DEBOPATB
SMFDEBVL DS    BL2'0'    DEBVOLSQ
SMFTDDEX EQU   *         TAPE DCB/DEB EXTENSION
SMFDCBBL DS    BL4'0'    DCBBLKCT
SMFDSSNO DS    BL6'0'    DATA SET SERIAL NUMBER
SMF14RV3 DS    BL2'0'    RESERVED
         ORG   SMFTDDEX
SMF14NTU DS    BL4'0'    NUMBER OF TRACKS USED(LAST TTR-FROM DCBFDAD)
*                        PS ORGANIZATION ONLY (TTR0)
SMF14NTR DS    BL4'0'    NUMBER OF TRACKS RELEASED BY DADSM RELSE RTN
SMF14NER DS    BL1'0'    NUMBER OF EXTENTS RELEASED
SMF14RV4 DS    BL3'0'    RESERVED
SMF14UCB EQU   *         UCB SEGMENT(ONE FOR EACH UCB FOR THE DATA SET)
SMFUCBCH DS    BL1'0'    UCBCHA
SMFUCBUA DS    BL1'0'    UCBUA
SMFSRTEV DS    BL6'0'    SRTEVOLI
SMFUCBTY DS    BL4'0'    UCBTYP
SMFSRTES DS    BL1'0'    SRTESTAB
SMF14NEX DS    BL1'0'    NUMBER EXTENTS
SMF14RV5 DS    BL2'0'    RESERVED
SMFEXCP  DS    BL4'0'    EXCP COUNT
SMFTAPEX EQU   *         SMF TAPE EXTENSION
*        THIS SECTION DESCRIBES THE UCB TAPE EXTENSION SEGMENT
SMFSRTEF DS    BL2'0'    SRTEFSCT
SMFSRTEQ DS    BL2'0'    SRTEFSEQ
         ORG   SMFTAPEX
*        THIS SECTION DESCRIBES THE UCB DASD EXTENSION SEGMENT
SMF14NTA DS    BL4'0'    NUMBER TRACKS ALLOCATED
SMF14UCE EQU   *         UCB SEGMENT END                         Y01901
         ORG   SMF14UCB
*
SMFISAMX EQU   *         ISAM EXTENSION SEG.(FOR DCBDSORG = IS)
SMF14RV6 DS    BL2'0'    RESERVED
SMFDCBMA DS    BL1'0'    DCBMAC
SMFDCBNL DS    BL1'0'    DCBNLEV
SMFDCBR3 DS    BL4'0'    DCBRORG3
SMFDCBNR DS    BL4'0'    DCBNREC
SMFDCBR2 DS    BL2'0'    DCBRORG2
SMFDCBNO DS    BL2'0'    DCBNOREC
SMFDCBR1 DS    BL2'0'    DCBRORG1
SMF14RV7 DS    BL1'0'    RESERVED
SMFDEBNI DS    BL1'0'    DEBNIEE
SMFDEBNP DS    BL1'0'    DEBNPEE
SMFDEBNO DS    BL1'0'    DEBNOEE
SMFNCYLS DS    BL2'0'    # CYL'S IN INDEPENDENT INDEX AREA
SMFNPCYL DS    BL2'0'    NUMBER OF CYL'S IN PRIME AREA
SMFNOCYL DS    BL2'0'    NUMBER OF CYL'S IN INDEPENDENT OVFL AREA
         ORG   SMFISAMX
         AGO   .CONTB
.IFAS017 ANOP
         EJECT
* THIS RECORD WRITTEN WHEN A USER'S DATA SET IS SCRATCHED.
* LENGTH IS VARIABLE, MINIMUM 96.
         DS    0F        ALIGN TO FULL WORD BOUNDARY
SMF17HDR EQU   *         HEADER SEGMENT FOR RECORD TYPE17(SCRATCH)
SMF17LEN DS    BL2'0'    RECORD LENGTH
SMF17SEG DS    BL2'0'    SEGMENT DESCRIPTOR
SMF17FLG DS    BL1'0'    HEADER FLAG BYTE
SMF17RTY DS    BL1'0'    RECORD TYPE 17
SMF17TME DS    BL4'0'    TOD, USING TIME MACRO W/BIN. INTVL.
SMF17DTE DS    PL4'0000' DATE, PACKED/DEC FORM; 00YYDDDF
SMF17SID DS    CL4' '    SYSTEM ID                               Y02901
SMF17JBN DS    CL8' '    JOB NAME
SMF17RST DS    BL4'0'    READER START TIME
SMF17RSD DS    PL4'0000' READER START DATE, PK/DEC FORM: 00YYDDDF
SMF17UID DS    CL8' '    USERID
SMF17RIN DS    BL2'0'    RECORD INDICATORS: ALL BITS RESERVED(0)
SMF17DSN DS    CL44' '   DSNAME
SMF17RV1 DS    BL3'0'    RESERVED
SMF17NVL DS    BL1'0'    N, # VOL SERS
* VOLUME SERIAL ENTRY (ONE FOR EACH VOLUME)
SMF17RV2 DS    BL2'0'    RESERVED
SMF17FVL DS    CL6' '    FIRST VOL SER # (SRTEVOLI)
SMF17LNV EQU   *-SMF17RV2    LENGTH OF VOL SER ENTRY
         ORG   SMF17RV2
         AGO   .CONTB
.IFAS018 ANOP
         EJECT
* THIS RECORD IS WRITTEN WHEN A USER'S DATA SET IS RENAMED.
* LENGTH IS VARIABLE, MINIMUM OF 140.
         DS    0F        ALIGN TO FULL WORD BOUNDARY
SMF18HDR EQU   *         HEADER SEGMENT FOR RECORD TYPE18(RENAME)
SMF18LEN DS    BL2'0'    RECORD LENGTH
SMF18SEG DS    BL2'0'    SEGMENT DESCRIPTOR
SMF18FLG DS    BL1'0'    HEADER FLAG BYTE
SMF18RTY DS    BL1'0'    RECORD TYPE 18
SMF18TME DS    BL4'0'    TOD, USING TIME MACRO W/BIN. INTVL.
SMF18DTE DS    PL4'0000' DATE, PACKED/DEC FORM; 00YYDDDF
SMF18SID DS    CL4' '    SYSTEM ID                               Y02901
SMF18JBN DS    CL8' '    JOB NAME
SMF18RST DS    BL4'0'    READER START TIME
SMF18RSD DS    PL4'0000' READER START DATE, PK/DEC FORM: 00YYDDDF
SMF18UID DS    CL8' '    USERID
SMF18RIN DS    BL2'0'    RECORD INDICATORS: ALL BITS RESERVED(0)
SMF18ODS DS    CL44' '   OLD DSNAME
SMF18NDS DS    CL44' '   NEW DSNAME
SMF18RV1 DS    BL3'0'    RESERVED
SMF18NVL DS    BL1'0'    N, THE # VOL SERS
* VOLUME SERIAL ENTRY (ONE FOR EACH ENTRY)
SMF18RV2 DS    BL2'0'    RESERVED
SMF18FVL DS    CL6' '    FIRST VOL SER # (SRTEVOLI)
SMF18LNV EQU   *-SMF18RV2    LENGTH OF VOL SER ENTRY
         ORG   SMF18RV2
         AGO   .CONTB
.IFAS019 ANOP
         EJECT
* THIS RECORD IS WRITTEN AT IPL, HALT EOD AND SWITCH SMF FOR EACH
* DASD VOLUME ONLINE. ALSO WRITTEN FOR EACH DASD VOLUME DEMOUNTED.
* LENGTH IS 64 BYTES.
         DS    0F        ALIGN TO FULL WORD BOUNDARY
SMF19HDR EQU   *         HEADER SEGMENT FOR RECORD TYPE19(LSPACE)
SMF19LEN DS    BL2'0'    RECORD LENGTH
SMF19SEG DS    BL2'0'    SEGMENT DESCRIPTOR
SMF19FLG DS    BL1'0'    HEADER FLAG BYTE
SMF19RTY DS    BL1'0'    RECORD TYPE 19
SMF19TME DS    BL4'0'    TOD, USING TIME MACRO W/BIN. INTVL.
SMF19DTE DS    PL4'0000' DATE, PK/DEC. FORM: 00YYDDDF
SMF19SID DS    CL4' '    SYSTEM IDENTIFICATION                   Y02901
SMF19RV1 DS    BL2'0'    RESERVED
SMF19VOL DS    CL6' '    VOLUME SERIAL #
SMF19OID DS    CL10' '   OWNER ID
SMF19DEV DS    BL4'0'    DEVICE TYPE
SMF19VTC DS    BL5'0'    VTOC ADDRESS
SMF19VTI DS    BL1'0'    DS4VTOCI
SMF19NDS DS    BL2'0'    # DSCB'S
SMF19DSR DS    BL2'0'    # FORMAT0 DSCB'S
SMF19NAT DS    BL2'0'    # UNUSED ALTERNATE TRACKS
SMF19SPC DS    BL4'0'    TOTAL # UNALLOCATED CYL'S AND TRKS
SMF19LEX DS    BL4'0'    # CYL'S AND TRKS IN LARGEST UNALLOCATED EXT.
SMF19NUE DS    BL2'0'    # UNALLOCATED EXTENTS
SMF19RV2 DS    BL2'0'    RESERVED
SMF19CUU DS    BL2'0'    CHANNEL AND UNIT ADDRESS                A40793
SMF19IND DS    BL2'0'    DASD MODULE ID OR DRIVE NUMBER          A40793
*                        INDICATING PHYSICAL IDENTITY OF DEVICES
*                        HAVING MOVEABLE ADDRESS PLUGS
         AGO   .CONTB
         MEND                        */
 %IFAL07: IF IFAR07='' %THEN %GOTO IFAL08;
    DCL 1 SMFRCD07 BASED(SMF07PTR) BDY(WORD),
 /* RECORD TYPE 7 - DATA LOST CONDITION                              */
 /* WRITTEN BY SMF WRITER AFTER A SMF DATA SET BECOMES AVAILABLE     */
 /* AFTER NEITHER SMF DATA SET WAS AVAILABLE                         */
         3 SMF7LEN FIXED(15),     /* RDW RECORD LENGTH               */
         3 SMF7SEG FIXED(15),     /* RDW SEGMENT DESCRIPTOR          */
         3 SMF7FLG BIT(8),        /* OPERATING ENVIRONMENT           */
         3 SMF7RTY FIXED(8),      /* RECORD TYPE 7                   */
         3 SMF7TME FIXED(31) BDY(BYTE), /* TOD RECORD WRITTEN        */
         3 SMF7DTE CHAR(4),       /* DATE RECORD WRITTEN             */
         3 SMF7SID CHAR(4),       /* SYSTEM ID FROM INSTALLATION     */
         3 SMF7NRO FIXED(15),     /* # OF RECORDS NOT WRITTEN        */
         3 SMF7STM FIXED(31) BDY(BYTE), /* STARTING TOD RECORDS LOST */
         3 SMF7STD CHAR(4);       /* STARTING DATE RECORDS LOST      */
 %IFAL08: IF IFAR08='' %THEN %GOTO IFAL09;
    DCL 1 SMFRCD08 BASED(SMF08PTR) BDY(WORD),
 /* RECORD TYPE 8 - DEVICE CONFIGURATION                             */
 /* WRITTEN DURING SMF INITIALIZATION                                */
         3 SMF8LEN FIXED(15),     /* RDW RECORD LENGTH               */
         3 SMF8SEG FIXED(15),     /* RDW SEGMENT DESCRIPTOR          */
         3 SMF8FLG BIT(8),        /* OPERATING ENVIRONMENT           */
         3 SMF8RTY FIXED(8),      /* RECORD TYPE 8                   */
         3 SMF8TME FIXED(31) BDY(BYTE), /* TOD RECORD WRITTEN        */
         3 SMF8DTE CHAR(4),       /* DATE RECORD WRITTEN             */
         3 SMF8SID CHAR(4),       /* SYSTEM ID FROM INSTALLATION     */
         3 SMF8LENN FIXED(15);    /* LGTH OF DEVICE SECTION PLUS
                                     THESE 2 BYTES                   */
                                  /* DEVICE ENTRY FOR EACH DEVICE
                                     ONLINE AT IPL                   */
    DCL 1 SMF8IODV BASED BDY(WORD), /* DEVICE ENTRY SECTION          */
         3 SMF8DUT CHAR(2),       /* DEVICE CLASS AND UNIT TYPE      */
         3 SMF8CHA CHAR(2),       /* CHANNEL AND UNIT ADDRESS        */
          4 SMF8VDV BIT(1);        /* VIRTUAL INDICATOR      @Y30AQPF*/
 %IFAL09: IF IFAR09='' %THEN %GOTO IFAL10;
    DCL 1 SMFRCD09 BASED(SMF09PTR) BDY(WORD),
 /* RECORD TYPE 9 - VARY ONLINE                                      */
 /* WRITTEN WHEN A DEVICE IS VARIED ONLINE                           */
         3 SMF9LEN FIXED(15),     /* RDW RECORD LENGTH               */
         3 SMF9SEG FIXED(15),     /* RDW SEGMENT DESCRIPTOR          */
         3 SMF9FLG BIT(8),        /* OPERATING ENVIRONMENT           */
         3 SMF9RTY FIXED(8),      /* RECORD TYPE 9                   */
         3 SMF9TME FIXED(31) BDY(BYTE), /* TOD RECORD WRITTEN        */
         3 SMF9DTE CHAR(4),       /* DATE RECORD WRITTEN             */
         3 SMF9SID CHAR(4),       /* SYSTEM ID FROM INSTALLATION     */
         3 SMF9LENN FIXED(15);    /* LGTH OF DEVICE SECTION + THESE 2*/
    DCL 1 SMF9DVAD BASED BDY(WORD), /* DEVICE SECTION, ONE ENTRY FOR
                                       EACH DEVICE VARIED ONLINE     */
         3 SMF9DUT CHAR(2),       /* DEVICE CLASS AND UNIT TYPE      */
         3 SMF9CUA CHAR(2),       /* CHANNEL AND UNIT ADDRESS        */
          4 SMF9VDV BIT(1);        /* VIRTUAL INDICATOR      @Y30AQPF*/
 %IFAL10: IF IFAR10='' %THEN %GOTO IFAL11;
    DCL 1 SMFRCD10 BASED(SMF10PTR) BDY(WORD),
 /* RECORD TYPE 10 - ALLOCATION RECOVERY                             */
 /* WRITTEN AFTER SUCCESSFUL DEVICE ALLOCATION RECOVERY              */
         3 SMF10LEN FIXED(15),    /* RDW RECORD LENGTH               */
         3 SMF10SEG FIXED(15),    /* RDW SEGMENT DESCRIPTOR          */
         3 SMF10FLG BIT(8),       /* OPERATING ENVIRONMENT           */
         3 SMF10RTY FIXED(8),     /* RECORD TYPE 10                  */
         3 SMF10TME FIXED(31) BDY(BYTE), /* TOD RECORD WRITTEN       */
         3 SMF10DTE CHAR(4),      /* DATE RECORD WRITTEN             */
         3 SMF10SID CHAR(4),      /* SYSTEM ID FROM INSTALLATION     */
         3 SMF10JBN CHAR(8),      /* JOB NAME                        */
         3 SMF10RST FIXED(31) BDY(BYTE), /*READER START TIME(.01 SEC)*/
         3 SMF10RSD CHAR(4),      /* READER START DATE               */
         3 SMF10UIF CHAR(8),      /* USER IDENTIFICATION FIELD       */
         3 SMF10LN FIXED(15);     /* LGTH OF DEVICE SECTION + THESE 2*/
    DCL 1 SMF10DEV BASED BDY(WORD), /* DEVICE SECTION, ONE ENTRY FOR
                                       EACH DEVICE ALLOCATED         */
         3 SMF10DUT CHAR(2),      /* DEVICE CLASS AND UNIT TYPE      */
         3 SMF10CUA CHAR(2),       /* CHANNEL AND UNIT ADDRESS       */
          4 SMF10VDV BIT(1);       /* VIRTUAL INDICATOR      @Y30AQPF*/
 %IFAL11: IF IFAR11='' %THEN %GOTO IFAL12;
    DCL 1 SMFRCD11 BASED(SMF11PTR) BDY(WORD),
 /* RECORD TYPE 11 - VARY OFFLINE                                    */
 /* WRITTEN WHEN A DEVICE IS VARIED OFFLINE                          */
         3 SMF11LEN FIXED(15),    /* RDW RECORD LENGTH               */
         3 SMF11SEG FIXED(15),    /* RDW SEGMENT DESCRIPTOR          */
         3 SMF11FLG BIT(8),       /* OPERATING ENVIRONMENT           */
         3 SMF11RTY FIXED(8),     /* RECORD TYPE 11                  */
         3 SMF11TME FIXED(31) BDY(BYTE), /* TOD RECORD WRITTEN       */
         3 SMF11DTE CHAR(4),      /* DATE RECORD WRITTEN             */
         3 SMF11SID CHAR(4),      /* SYSTEM ID FROM INSTALLATION     */
         3 SMF11LN FIXED(15);     /* LGTH OF DEVICE SECTION + THESE 2*/
    DCL 1 SMF11DEV BASED BDY(WORD), /* DEVICE SECTION, ONE ENTRY FOR
                                       EACH DEVICE VARIED OFFLINE    */
         3 SMF11DUT CHAR(2),      /* DEVICE CLASS AND UNIT TYPE      */
         3 SMF11CUA CHAR(2),      /* CHANNEL AND UNIT ADDRESS        */
          4 SMF11VDV BIT(1);      /* VIRTUAL INDICATOR       @Y30AQPF*/
 %IFAL12: ;
 %IFAL14: IF IFAR14^='' %THEN %GOTO IFAL15;
         %IF IFAR15='' %THEN %GOTO IFAL16;
 %IFAL15: ;
    DCL 1 SMFRCD14 BASED(SMF14PTR) BDY(WORD),
 /* RECORD TYPE 14 AND 15 - DATA SET CLOSED OR END-OF-VOLUME         */
 /* WRITTEN WHEN A USER'S DATA SET IS CLOSED OR PROCESSED BY EOV     */
 /* TYPE 14 IF DATA SET WAS OPENED FOR INPUT OR RDBACK               */
 /* TYPE 15 IF DATA SET WAS OPENED FOR OUTPUT/INOUT/OUTIN/UPDATE     */
         3 SMF14LEN FIXED(15),    /* RDW RECORD LENGTH               */
         3 SMF14SEG FIXED(15),    /* RDW SEGMENT DESCRIPTOR          */
         3 SMF14FLG BIT(8),       /* OPERATING ENVIRONMENT           */
         3 SMF14RTY FIXED(8),     /* RECORD TYPE 14 OR 15            */
         3 SMF14TME FIXED(31) BDY(BYTE), /* TOD RECORD WRITTEN       */
         3 SMF14DTE CHAR(4),      /* DATE RECORD WRITTEN             */
         3 SMF14SID CHAR(4),      /* SYSTEM ID FROM INSTALLATION     */
         3 SMF14JBN CHAR(8),      /* JOB NAME                        */
         3 SMF14RST FIXED(31) BDY(BYTE), /*READER START TIME(.01 SEC)*/
         3 SMF14RSD CHAR(4),      /* READER START DATE               */
         3 SMF14UIF CHAR(8),      /* USER IDENTIFICATION FIELD       */
          5 SMF14UID CHAR(8),
         3 SMF14RIN BIT(16),      /* RECORD INDICATORS               */
          5 SMF14RV0 BIT(1),      /* RESV                            */
          5 SMF14EOV BIT(1),      /* RECORD WRITTEN BY EOV           */
          5 SMF14DAD BIT(1),      /* DASD DEVICE                     */
          5 SMF14TDS BIT(1),      /* TEMPORARY DATA SET              */
          5 SMF14DDA BIT(1),      /* DCBDSORG = DA                   */
          5 SMF14IS  BIT(1),      /* DCBDSORG = IS                   */
          5 SMF14JIS BIT(1),      /* JFCDSORG = IS                   */
          5 SMF14VIO BIT(1),      /* VIO DATA SET                    */
          5 * BIT(8),             /* RESV                            */
         3 SMF14SDC FIXED(8),     /* SIZE OF DCB/DEB SEGMENT         */
         3 SMF14NUC FIXED(8),     /* # OF UCB SEGMENTS               */
         3 SMF14SUC FIXED(8),     /* SIZE OF EACH UCB SEGMENT        */
         3 SMF14SET FIXED(8),     /* SIZE OF EXTENSION SEGMENT       */
         3 SMF14RV1 CHAR(4),      /* RESV                            */
         3 SMFTIOT CHAR(16),      /* TIOT SEGMENT FROM DD ENTRY      */
          5 SMFTIOE1 FIXED(8),    /* TIOELNGH                        */
          5 SMFTIOE2 FIXED(8),    /* TIOESSTA                        */
          5 SMFTIOE3 FIXED(8),    /* TIOEWTCT                        */
          5 SMFTIOE4 FIXED(8),    /* TIOELINK                        */
          5 SMFTIOE5 CHAR(8),     /* TIOEDDNM                        */
          5 SMFTIOE6 CHAR(3),     /* TIOEJFCB                        */
          5 SMFTIOE7 CHAR(1),     /* TIOESTTC                        */
         3 SMFJFCB1 CHAR(176),    /* JFCB SEGMENT (ENTIRE JFCB)      */
         3 SMFDCBDE CHAR(24) BDY(WORD), /* DCB/DEB SGMT (TAPE/DASD)  */
          5 SMFDCBOR CHAR(2),     /* DCBDSORG                        */
          5 SMFDCBRF CHAR(1),     /* DCBRECFM                        */
          5 SMFDCBMF CHAR(2),     /* DCBMACRF                        */
          5 SMFDCBFL CHAR(1),     /* DCBOFLGS                        */
          5 SMFDCBOP CHAR(1),     /* DCBOPTCD                        */
          5 SMF14RV2 CHAR(1),     /* RESV                            */
          5 SMFDEBFL CHAR(1),     /* DEBOFLGS                        */
          5 SMFDEBOP CHAR(1),     /* DEBOPATB                        */
          5 SMFDEBVL FIXED(15),   /* DEBVOLSQ                        */
          5 * CHAR(12) BDY(WORD),
           7 SMFTDDEX CHAR(0),    /* TAPE DCB/DEB EXTENSION          */
            9 SMFDCBBL FIXED(31) BDY(BYTE), /* DCBBLKCT              */
            9 SMFDSSNO CHAR(6),   /* DATA SET SERIAL NUMBER          */
            9 SMF14RV3 CHAR(2),   /* RESV                            */
           7 SMFDDDEX CHAR(12),   /* DASD DCB/DEB EXTENSION          */
            9 SMF14NTU FIXED(31) BDY(BYTE), /*TRACKS USED, HIGHEST TTR
                                              PS ONLY (TTR0)         */
            9 SMF14NTR FIXED(31) BDY(BYTE), /* TRACKS RELEASED       */
            9 SMF14NER FIXED(8),  /* EXTENTS RELEASED                */
            9 SMF14RV4 CHAR(3);   /* RESV                            */
    DCL 1 SMF14UCB BASED BDY(HWORD), /* UCB SEGMENT, ONE FOR EACH UCB*/
         3 SMFUCBCH CHAR(1),      /* UCBCHA                          */
         3 SMFUCBUA CHAR(1),      /* UCBUA                           */
         3 SMFSRTEV CHAR(6),      /* SRTEVOLI                        */
         3 SMFUCBTY CHAR(4),      /* UCBTYP                          */
         3 SMFSRTES CHAR(1),      /* SRTESTAB                        */
         3 SMF14NEX FIXED(8),     /* # OF EXTENTS                    */
         3 SMF14RV5 CHAR(2),      /* RESV                            */
         3 SMFEXCP FIXED(31) BDY(BYTE), /* EXCP COUNT                */
         3 SMFTAPEX CHAR(0),      /* SMF TAPE EXTENSION              */
          5 SMFSRTEF CHAR(2),     /* SRTEFSCT                        */
          5 SMFSRTEQ CHAR(2),     /* SRTEFSEQ                        */
         3 SMF14NTA FIXED(31) BDY(BYTE); /* DASD EXT, # TRACKS ALLOC */
    DCL 1 SMFISAMX BASED BDY(HWORD), /* ISAM EXTENSION               */
         3 SMF14RV6 CHAR(2),      /* RESV                            */
         3 SMFDCBMA CHAR(1),      /* DCBMAC                          */
         3 SMFDCBNL FIXED(8),     /* DCBNLEV                         */
         3 SMFDCBR3 CHAR(4),      /* DCBRORG3                        */
         3 SMFDCBNR FIXED(31) BDY(BYTE), /* DCBNREC                  */
         3 SMFDCBR2 CHAR(2),      /* DCBRORG2                        */
         3 SMFDCBNO FIXED(15),    /* DCBNOREC                        */
         3 SMFDCBR1 CHAR(2),      /* DCBRORG1                        */
         3 SMF14RV7 CHAR(1),      /* RESV                            */
         3 SMFDEBNI CHAR(1),      /* DEBNIEE                         */
         3 SMFDEBNP CHAR(1),      /* DEBNPEE                         */
         3 SMFDEBNO CHAR(1),      /* DEBNOEE                         */
         3 SMFNCYLS FIXED(15),    /* # CYLS IN INDEPENDENT INDEX AREA*/
         3 SMFNPCYL FIXED(15),    /* ## CYLS IN PRIME AREA           */
         3 SMFNOCYL FIXED(15);    /* # CYLS IN INDEPENDENT OVFL AREA */
 %IFAL16: ;
 %IFAL17: IF IFAR17='' %THEN %GOTO IFAL18;
    DCL 1 SMFRCD17 BASED(SMF17PTR) BDY(WORD),
 /* RECORD TYPE 17 - DATA SET SCRATCH                                */
 /* WRITTEN WHENEVER A USER'S DATA SET IS SCRATCHED                  */
         3 SMF17LEN FIXED(15),    /* RDW RECORD LENGTH               */
         3 SMF17SEG FIXED(15),    /* RDW SEGMENT DESCRIPTOR          */
         3 SMF17FLG BIT(8),       /* OPERATING ENVIRONMENT           */
         3 SMF17RTY FIXED(8),     /* RECORD TYPE 17                  */
         3 SMF17TME FIXED(31) BDY(BYTE), /* TOD RECORD WRITTEN       */
         3 SMF17DTE CHAR(4),      /* DATE RECORD WRITTEN             */
         3 SMF17SID CHAR(4),      /* SYSTEM ID FROM INSTALLATION     */
         3 SMF17JBN CHAR(8),      /* JOB NAME                        */
         3 SMF17RST FIXED(31) BDY(BYTE), /*READER START TIME(.01 SEC)*/
         3 SMF17RSD CHAR(4),      /* READER START DATE               */
         3 SMF17UIF CHAR(8),      /* USER IDENTIFICATION FIELD       */
          5 SMF17UID CHAR(8),
         3 SMF17RIN BIT(16),      /* RESV                            */
         3 SMF17DSN CHAR(44),     /* DATA SET NAME                   */
         3 SMF17RV1 CHAR(3),      /* RESV                            */
         3 SMF17NVL FIXED(8);     /* # OF VOLUME SECTIONS FOLLOWING  */
    DCL 1 * BASED CHAR(8),        /* VOLUME SECTION, ONE FOR EACH
                                     VOLUME CONTAINING PART OF THE DS*/
         3 SMF17RV2 CHAR(2),      /* RESV                            */
         3 SMF17FVL CHAR(6);      /* VOLUME SERIAL NUMBER            */
 %IFAL18: IF IFAR18='' %THEN %GOTO IFAL19;
    DCL 1 SMFRCD18 BASED(SMF18PTR) BDY(WORD),
 /* RECORD TYPE 18 - DATA SET RENAME                                 */
 /* WRITTEN WHENEVER A DATA SET IS RENAMED                           */