*%GOTO IFABGN1;  /*
         MACRO
&NAME    IFASMFR &RECTYPE                                            */
*%IFABGN1: ;
* /*                                                                 */
* /* MACMEAN IFASMFR MEANS SYSTEM MANAGEMENT FACILITY RECORD MAPPING */
* /* MACCOMP Y-2 SC102/BL27P                                         */
* /* MACSTAT Y-2 73298/42020                                         */
* /* METHOD OF ACCESS                                                */
* /*  PL/S - USER DEFINES MACRO VARIABLE IFARXX WHERE XX=RECORD NUM  */
* /*         DECLARE SMFXXPTR PTR(31) OR RESPECIFY FOR BASE          */
* /*         INCLUDE MACRO FROM LIBRARY                              */
* /*          EXAMPLE %IFAR08 = 'YES',           NOTE. THE COMMA REP-*/
* /*                  DCL SMF08PTR PTR(31),      RESENTS A SEMI-COLON*/
* /*                  %INCLUDE SYSLIB(IFASMFR),  BUT ISN'T TO AVIOD  */
* /*                                             A DIAGNOSTIC.       */
* /*                                                                 */
* /*                                                                 */
* /*         THIS MACRO PROCESSES RECORDS IN THE RANGE 00-06. IT     */
* /*         ACTS AS A ROUTER TO OTHER MACROS TO PROCESS OTHER       */
* /*         RECORDS AS FOLLOWS:                                     */
* /*                                                                 */
* /*             MACRO        RECORDS                                */
* /*            ********      *******                                */
* /*            IFASMFR1      07-19                                  */
* /*            IFASMFR2      20-27                                  */
* /*            IFASMFR3      28-36                                  */
* /*            IFASMFR4      37-46                                  */
* /*            IFASMFR5      47-54                                  */
* /*            IFASMFR6      55-69                                  */
* /*            IFASMFR7      70-73                                  */
* /*            IFASMFR8      74-79                                  */
* /*            IFASMFR9      80-93                                  */
* /*            IFASMFRA      94-103                                 */
* /*            IFASMFRB      104-113                                */
* /*            IFAMSFRC      114-123                                */
* /*            IFASMFRD      124-127                                */
*%GOTO IFABGN2;   /*
.*
.*
.* CHANGE LEVEL= Z40MPTH, ZA05171, Z40FPTH, ZA10800, ZA27193
.*
.*
.* CHANGE ACTIVITY:
.*
.*    $T8=UZ90390 ,EBB1102,850312,PDFS: TYPE 6 RESTRUCTURE        @T8A
.*
.*
*  THIS IS AN SMF MACRO WHICH CONTROLS THE BUILDING OF SMF RECORDS. THE
*  REQUIRED FORMAT IS
*
*        IFASMFR  &RECTYPE
*
*  NOTE: VALUES FOR &RECTYPE MUST BE ENCLOSED IN PARENS(UNLESS ONLY 1).
*
         LCLA  &NUM,&B
.* &NUM IS SET TO THE NUMBER OF SUBSTRING ITEMS IN THE FIRST PARAMETER
.* AND &B IS USED TO POINT AT EACH SUBSTRING ITEM.
         AIF   ('&RECTYPE' EQ '').E1
&NUM     SETA  N'&RECTYPE
         AGO   .CONTC
.CONTB   ANOP
&NUM     SETA  &NUM-1
.CONTC   ANOP
         AIF   (&NUM LE 0).OUT
&B       SETA  &B+1
.RTYCHK  AIF   ('&RECTYPE(&B)' EQ '').E3
         AIF   (&RECTYPE(&B) GT 127 OR &RECTYPE(&B) LT 0).E5   @Z40FPTH
         AGO   .CONTA
.E1      ANOP
         SPACE 3
         MNOTE 8,'PARAMETERS OMITTED, PROCESSING TERMINATED'
         MEXIT
.E3      ANOP
         SPACE 3
         MNOTE 4,'NULL RECORD TYPE PASSED'
         AGO   .CONTB
.E5      ANOP
         SPACE 3
         MNOTE 4,'&RECTYPE(&B) INVALID RECORD TYPE SPECIFIED'
         AGO   .CONTB
.CONTA   AIF   (&RECTYPE(&B) GE 0 AND &RECTYPE(&B) LE 6).G0
         AIF   (&RECTYPE(&B) GE 7 AND &RECTYPE(&B) LE 19).G1
         AIF   (&RECTYPE(&B) GE 20 AND &RECTYPE(&B) LE 27).G2
         AIF   (&RECTYPE(&B) GE 28 AND &RECTYPE(&B) LE 36).G3
         AIF   (&RECTYPE(&B) GE 37 AND &RECTYPE(&B) LE 46).G4
         AIF   (&RECTYPE(&B) GE 47 AND &RECTYPE(&B) LE 54).G5
         AIF   (&RECTYPE(&B) GE 55 AND &RECTYPE(&B) LE 69).G6
         AIF   (&RECTYPE(&B) GE 70 AND &RECTYPE(&B) LE 73).G7
         AIF   (&RECTYPE(&B) GE 74 AND &RECTYPE(&B) LE 79).G8
         AIF   (&RECTYPE(&B) GE 80 AND &RECTYPE(&B) LE 93).G9
         AIF   (&RECTYPE(&B) GE 94 AND &RECTYPE(&B) LE 103).GA
         AIF   (&RECTYPE(&B) GE 104 AND &RECTYPE(&B) LE 113).GB
         AIF   (&RECTYPE(&B) GE 114 AND &RECTYPE(&B) LE 123).GC
         AIF   (&RECTYPE(&B) GE 124 AND &RECTYPE(&B) LE 127).GD
         AGO   .E5
.G0      ANOP
         AIF   (&RECTYPE(&B) EQ 0).IFAS000
         AIF   (&RECTYPE(&B) EQ 2).IFAS002
         AIF   (&RECTYPE(&B) EQ 3).IFAS003
         AIF   (&RECTYPE(&B) EQ 4).IFAS004
         AIF   (&RECTYPE(&B) EQ 5).IFAS005
         AIF   (&RECTYPE(&B) EQ 6).IFAS006
         AGO   .E5
.G1      ANOP
         IFASMFR1 &RECTYPE(&B)
         AGO   .CONTB
.G2      ANOP
         IFASMFR2 &RECTYPE(&B)
         AGO   .CONTB
.G3      ANOP
         IFASMFR3 &RECTYPE(&B)
         AGO   .CONTB
.G4      ANOP
         IFASMFR4 &RECTYPE(&B)
         AGO   .CONTB
.G5      ANOP
         IFASMFR5 &RECTYPE(&B)
         AGO   .CONTB
.G6      ANOP
         IFASMFR6 &RECTYPE(&B)
         AGO   .CONTB
.G7      ANOP
         IFASMFR7 &RECTYPE(&B)
         AGO   .CONTB
.G8      ANOP
         IFASMFR8 &RECTYPE(&B)
         AGO   .CONTB
.G9      ANOP
         IFASMFR9 &RECTYPE(&B)
         AGO   .CONTB
.GA      ANOP
         IFASMFRA &RECTYPE(&B)
         AGO   .CONTB
.GB      ANOP
         IFASMFRB &RECTYPE(&B)
         AGO   .CONTB
.GC      ANOP
         IFASMFRC &RECTYPE(&B)
         AGO   .CONTB
.GD      ANOP
         IFASMFRD &RECTYPE(&B)
         AGO   .CONTB
.OUT     MEXIT
.IFAS000 ANOP
         EJECT
*  THIS DSECT DEFINES THE FORMAT FOR RECORD TYPE 0 (IPL RECORD)
*  RECORD LENGTH IS 31 BYTES
*
         DS    0F        ALIGN TO FULL WORD BOUNDARY
SMFRCD0  EQU   *         HEADER SEGMENT
SMF0LEN  DS    BL2'0'    RECORD LENGTH
SMF0SEG  DS    BL2'0'    SEGMENT DESCRIPTOR
SMF0FLG  DC    BL1'0'    HEADER FLAG BYTE
SMF0RTY  DC    BL1'0'    RECORD TYPE 0
SMF0TME  DC    BL4'0'    TOD, USING FORMAT FROM TIME MACRO W/BIN. INTVL
SMF0DTE  DC    PL4'0000'      DATE IN PACKED DECIMAL FORM: 00YYDDDF
SMF0SID  DC    CL4' '    SYSTEM IDENTIFICATION                   Y02901
SMF0JWT  DC    BL4'0'    JOB WAIT TIME DEFAULT VALUE IN MINUTES(BINARY)
SMF0BUF  DC    BL4'0'    SMF BUFFER SIZE IN BYTES(BINARY)
SMF0VST  DC    BL4'0'    VIRTUAL STORAGE SIZE IN K BLOCKS(BINARY)XM4432
SMF0OPT  DC    BL1'0'    OPTIONS BYTE:
*                        BIT0 - SYSTEM & JOB DATA TO BE COLLECTED
*                        BIT1 - STEP DATA TO BE COLLECTED
*                        BIT2 - EXITS REQUESTED
*                        BIT3 - DATA SET ACCOUNTING
*                        BIT4 - VOLUME ACCOUNTING
*                        BIT5 - RESERVED(WAS ESV IN 14 AND 15)
*                        BIT6 - TEMPORARY-DATA-SET SCRATCH RECORDS
*                        BIT7 - =0 BACKGROUND JOB; =1 FOREGROUND JOB
SMF0RST  DC    BL4'0'    REAL STORAGE SIZE IN K BLOCKS(BINARY)   XM4432
         AGO   .CONTB
.IFAS002 ANOP
         EJECT
* THIS RECORD IS WRITTEN BY THE SMF DUMP UTILITY PROGRAM AT THE
* BEGINNING OF A DUMP DATA SET. RECORD LENGTH IS 14 BYTES
*
         DS    0F        ALIGN TO FULL WORD BOUNDARY
SMFRCD2  EQU   *         HEADER SEGMENT
SMF2LEN  DS    BL2'0'    RECORD LENGTH
SMF2SEG  DS    BL2'0'    SEGMENT DESCRIPTOR
SMF2FLG  DC    BL1'0'    HEADER FLAG BYTE
SMF2RTY  DC    BL1'0'    RECORD TYPE 2
SMF2TME  DC    BL4'0'    TOD, USING FORMAT FROM TIME MACRO W/BIN. INTVL
SMF2DTE  DC    PL4'0000'      DATE IN PACKED DECIMAL FORM: 00YYDDDF
SMF2SID  DC    CL4' '    SYSTEM IDENTIFICATION                   Y02901
         AGO   .CONTB
.IFAS003 ANOP
         EJECT
* THIS RECORD IS WRITTEN BY THE SMF DUMP UTILITY PROGRAM AT THE END
* OF A DUMP DATA SET. RECORD LENGTH IS 14 BYTES.
*
         DS    0F        ALIGN TO FULL WORD BOUNDARY
SMFRCD3  EQU   *         HEADER SEGMENT
SMF3LEN  DS    BL2'0'    RECORD LENGTH
SMF3SEG  DS    BL2'0'    SEGMENT DESCRIPTOR
SMF3FLG  DC    BL1'0'    HEADER FLAG BYTE
SMF3RTY  DC    BL1'0'    RECORD TYPE 3
SMF3TME  DC    BL4'0'    TOD, USING FORMAT FROM TIME MACRO W/BIN. INTVL
SMF3DTE  DC    PL4'0000'      DATE IN PACKED DECIMAL FORM: 00YYDDDF
SMF3SID  DC    CL4' '    SYSTEM IDENTIFICATION                   Y02901
         AGO   .CONTB
.IFAS004 ANOP
         EJECT
* THIS RECORD IS WRITTEN AT NORMAL OR ABNORMAL TERMINATION OF A STEP.
* RECORD LENGTH IS VARIABLE. MINIMUM OF 137.
*
         DS    0F        ALIGN TO FULL WORD BOUNDARY
SMFRCD4  EQU   *         HEADER SEGMENT
SMF4LEN  DS    BL2'0'    RECORD LENGTH
SMF4SEG  DS    BL2'0'    SEGMENT DESCRIPTOR
SMF4FLG  DC    BL1'0'    HEADER FLAG BYTE
SMF4RTY  DC    BL1'0'    RECORD TYPE 4
SMF4TME  DC    BL4'0'    TOD USING FORMAT FROM TIME MACRO W/BIN. INTVL.
SMF4DTE  DC    PL4'0000' DATE IN PACKED DECIMAL FORM: OOYYDDDF
SMF4SID  DC    CL4' '    SYSTEM IDENTIFICATION                   Y02901
SMF4JBN  DC    CL8' '    JOB NAME
SMF4RST  DC    BL4'0'    READER START TIME (IN 100THS SECONDS)
SMF4RSD  DC    PL4'0000' READER START DATE
SMF4UIF  DC    CL8' '    USER IDENTIFICATION FIELD
SMF4STN  DC    BL1'0'    STEP NUMBER
SMF4SIT  DC    BL4'0'    STEP INITIATION TIME (IN 100THS SECONDS)
SMF4STID DC    PL4'0000' STEP INITIATION DATE (PACKED DECIMAL FORMAT)
SMF4NCI  DC    BL4'0'    NUMBER OF CARD IMAGES IN DD DATA OR DD *
*                        DATA SETS
SMF4SCC  DC    BL2'0'    STEP COMPLETION CODE                  @ZA11851
SMF4PRTY DC    BL1'0'    PRIORITY AT WHICH STEP WAS DISPATCHED :
*                        ACTUAL PRIORITY=251-(15-USER PRIORITY)*16
SMF4PGMN DC    CL8' '    PROGRAM NAME
SMF4STMN DC    CL8' '    STEP NAME
SMF4RSH0 DC    BL2'0'    REGION SIZE REQ(PRIVATE AREA 1K UNIT)   Y02901
SMF4PRV  EQU   SMF4RSH0                                          Y02901
SMF4SYST DC    BL2'0'    SYSTEM AREA USED(TOP OF PROVATE AREA)   Y02901
SMF4H0ST DC    BL2'0'    STORAGE USED(VIRT OR REAL-SEE SMF4RIN)
SMF4STU  EQU   SMF4H0ST  (LOW OF PRIVATE AREA)                   Y02901
SMF4RV1  DC    BL6'0'    RESERVED
SMF4SPK  DC    1BL1'0'   STORAGE PROTECT KEY                     A40791
SMF4STI  DC    1BL1'0'   STEP TERMINATION INDICATOR
*                        BIT0 - RESERVED
*                        BIT1 - CANCELLED AT EXIT IEFUJV
*                        BIT2 - CANCELLED AT EXIT IEFUJI
*                        BIT3 - CANCELLED AT EXIT IEFUSI
*                        BIT4 - CANCELLED AT EXIT IEFACTRT
*                        BIT5 - STEP IS TO BE RESTARTED        @YL026WA
*                        BIT6 - 0=NORMAL COMPLETION
*                               1=ABEND
*                        BIT7 - 1=STEP FLUSHED
SMF4RV2  DC    BL2'0'    RESERVED                                A40791
SMF4AST  DC    BL4'0'    DEVICE ALLOC START TIME                 A40791
SMF4PPST DC    BL4'0'    PROBLEM PROGRAM START TIME              A40791
SMF4RV3  DC    BL1'0'    RESERVED                              @YL026WA
SMF4SRBT DC    BL3'0'    STEP CPU TIME UNDER SRB(.01 SEC)      @YL026WA
SMF4RIN  DC    BL2'0'    RECORD INDICATORS
*                        BIT0-5 RESERVED                       @YM02618
*                         6 =1 POSSIBLE ERROR IN DEV ENTRY     @YM02618
*                         7 =0 STOR IS VIRTUAL, =1 STOR IS REAL@YM02618
*                         8-15 RESERVED                        @YM02618
SMF4RLCT DC    BL2'0'    OFFSET TO RELOCATE SECTION
SMF4LENN DC    BL2'0'    LENGTH OF EXCP PORTION OF RECORD
*        FOR EACH DEVICE ASSIGNED TO EACH DATA SET THERE IS AN 8 BYTE
*        ENTRY HAVING THE FOLLOWING FORMAT:
*
SMF4DEVC DC    BL1'0'    DEVICE CLASS
SMF4UTYP DC    BL1'0'    UNIT TYPE
SMF4CUAD DC    BL2'0'    CHANNEL AND UNIT ADDRESS
SMF4VDV  EQU   X'80'      VIRTUAL INDICATOR                    @Y30AQPF
SMF4EXCP DC    BL4'0'    COUNT OF EXCP'S ISSUED FOR THE DEVICE AND
*                        DATA SET
         ORG   SMF4DEVC
SMF4LNTH DC    BL1'0'    TOTAL LENGTH OF CPU AND ACCT. SECTION
SMF4SETM DC    BL3'0'    STEP CPU TIME UNDER TCB(.01SEC)       @YL026WA
SMF4NAF  DC    BL1'0'    NUMBER OF ACCOUNTING FIELDS
SMF4ACTF DS    0C        EXEC STATEMENT ACCOUNTING FIELDS(VARIABLE)
*
*        EACH ENTRY FOR AN ACCOUNTING FIELD CONTAINS THE LENGTH OF THE
*        FIELD (1 BYTE,BINARY), FOLLOWED BY THE FIELD(EBCDIC).AN
*        OMITTED FIELD IS REPRESENTED BY A LENGTH INDICATOR OF 0.
*
*        RELOCATE SECTION
SMF4PGIN DS    BL4'0'    NUMBER OF PAGE-INS
SMF4PGOT DS    BL4'0'    NUMBER OF PAGE-OUTS
SMF4NSW  DS    BL4'0'    NUM OF SWAPS                            Y02901
SMF4RGNS EQU   SMF4NSW                                           Y02901
SMF4PSI  DS    BL4'0'    PAGES SWAPPED IN                        Y02901
SMF4SIN  EQU   SMF4PSI                                           Y02901
SMF4PSO  DS    BL4'0'    PAGES SWAPPED OUT                       Y02901
SMF4SOUT EQU   SMF4PSO                                           Y02901
SMF4VPI  DS    BL4'0'    VAM PAGE INS                            Y02132
SMF4VPO  DS    BL4'0'    VAM PAGE OUTS                           Y02132
*        PERFORMANCE SECTION
SMF4SST  DS    BL4'0'              STEP SERVICE TIME           @YM07459
SMF4ACT  DS    BL4'0'              STEP ACTIVE TIME            @YM07459
SMF4PGNO DS    BL2'0'              PERFORMANCE NUMBER          @YM07459
SMF4TRAN DS    BL4'0'      STEP TRANSACTION RESIDENCY TIME     @Z40FPPF
SMF4RECL DS    BL4'0'      NUMBER OF RECLAIMS                  @Z40FPPF
SMF4RCLM DS    BL4'0'      NUMBER OF VIO RECLAIMS              @Z40FPPF
SMF4CPGN DS    BL4'0'      NUMBER OF COMMON PAGE-INS           @Z40FPPF
SMF4CRCL DS    BL4'0'      NUMBER OF COMMON RECLAIMS           @Z40FPPF
SMF4PGST DS    BL4'0'      NUMBER OF PAGES STOLEN FROM         @Z40FPPF
*                          THIS MEMORY                         @Z40FPPF
SMF4PSEC DS    CL8         COUNT OF PAGE SECONDS               @Z40FPPF
         AGO   .CONTB
.IFAS005 ANOP
         EJECT
* THIS RECORD IS WRITTEN AT  NORMAL OR ABNORMAL TERMINATION OF A JOB.
* RECORD LENGTH IS VARIABLE. MINIMUM OF 117.
*
         DS    0F        ALIGN TO FULL WORD BOUNDARY
SMFRCD5  EQU   *         HEADER SEGMENT
SMF5LEN  DS    BL2'0'    RECORD LENGTH
SMF5SEG  DS    BL2'0'    SEGMENT DESCRIPTOR
SMF5FLG  DC    BL1'0'    HEADER FLAG BYTE
SMF5RTY  DC    BL1'0'    RECORD TYPE 5
SMF5TME  DC    BL4'0'    TOD USING FORMAT FROM TIME MACRO W/BIN. INTVL.
SMF5DTE  DC    PL4'0000' DATE, PACKED DEC. FORM : OOYYDDDF(F IS A SIGN)
SMF5SID  DC    CL4' '    SYSTEM IDENTIFICATION                   Y02901
SMF5JBN  DC    CL8' '    JOB NAME
SMF5RST  DC    BL4'0'    READER START TIME FOR JOB (IN 100THS/SECONDS)
SMF5RSD  DC    PL4'0000' READER START DATE,PACKED DECIMAL FORMAT
SMF5UIF  DC    CL8' '    USER IDENTIFICATION FIELD
SMF5NST  DC    BL1'0'    NUMBER OF STEPS IN THE JOB
SMF5JIT  DC    BL4'0'    JOB INITIATION TIME (IN 100THS/SECONDS)
SMF5JID  DC    PL4'0000' JOB INITIATION DATE, PACKED DECIMAL FORMAT
SMF5NCI  DC    BL4'0'    NUMBER OF CARD-IMAGE RECORDS IN DD DATA OR DD*
*                        DATA SETS
SMF5JCC  DC    BL2'0'    JOB COMPLETION CODE
SMF5JPTY DC    BL1'0'    JOB PRIORITY
SMF5RSTT DC    BL4'0'    READER STOP TIME FOR JOB (IN 100THS/SECONDS)
SMF5RSTD DC    PL4'0000' READER STOP DATE FOR JOB (IN PACKED DEC.FORM)
SMF5JBTI DC    BL1'0'    JOB TERMINATION INDICATOR
*                        BIT0-RESERVED
*                           1-CANCELLED AT EXIT IEFUJV
*                           2-CANCELLED AT EXIT IEFUJI
*                           3-CANCELLED AT EXIT IEFUSI
*                           4-CANCELLED AT EXIT IEFACTRT
*                           5-RESERVED
*                           6-O=NORMAL COMPLETION
*                             1=ABEND
*                           7-RESERVED
SMF5SMCI DC    BL1'0'    RESV-FORMERLY SYSOUT CLASSES INDICATOR  Y02120
SMF5TRAN DC    BL4'0'    TOTAL TRANSACTION RESIDENCY TIME      @ZM01380
SMF5CKRE DC    BL1'0'    RESV
SMF5RDCL DC    BL1'0'    READER DEVICE CLASS
SMF5RUTY DC    BL1'0'    READER UNIT TYPE
SMF5JICL DC    CL1' '    JOB INPUT CLASS
SMF5SPK  DC    BL1'0'    STORAGE PROTECT KEY                     A40791
SMF5SRBT DC    BL3'0'    JOB CPU TIME UNDER SRB(.01 SEC)       @YL026WA
SMF5TJS  DS    BL4'0'    TOTAL JOB SERVICE(SERVICE UNITS)        Y02133
SMF5TTAT DS    BL4'0'    TOTAL TRANSACTION ACTIVE TIME FOR JOB   Y02133
SMF5RV2  DS    BL4'0'    RESERVED                              @YL026WA
SMF5PGNO DC    BL2'0'    PERFORMANCE GROUP #                   @YL026WA
SMF5RV3  DC    CL2' '    RESERVED                              @YL026WA
SMF5TLEN DC    BL1'0'    TOTAL LENGTH OF REST OF RECORD
SMF5PRGN DC    CL20' '   PROGRAMMER'S NAME
SMF5JCPU DC    BL3'0'    JOB CPU TIME UNDER TCB(.01 SEC)       @YL026WA
SMF5ACTF DC    BL1'0'    NUMBER OF ACCOUNTING FIELDS
SMF5JSAF DS    0C        JOB STATEMENT ACCOUNTING FIELDS(VARIABLE)
*
*        EACH ENTRY FOR AN ACCOUNTING FIELD CONTAINS THE LENGTH OF THE
*        FIELD(1 BYTE,BINARY),FOLLOWED BY THE FIELD (EBCDIC).AN OMITTED
*        FIELD IS REPRESENTED BY A LENGTH INDICATOR OF 0.
         AGO   .CONTB
.IFAS006 ANOP
         EJECT
* IN JES2, THIS RECORD IS WRITTEN FOR EACH JOB OUTPUT ELEMENT, @YL02120
* WHICH REPRESENTS A GROUP OF DS DIFFERENTIATED BY PUNCH OR    @YL02120
* PRINTER SETUP & TYPE OF OUTPUT(EG HELD VS NON-HELD).         @YL02120
* FOR JES3, WRITTEN FOR EACH COPY OF A DATA SET                    @T8C
*
         DS    0F        ALIGN TO FULL WORD BOUNDARY
SMFRCD6  EQU   *         HEADER SEGMENT
SMF6LEN  DS    BL2'0'    RECORD LENGTH
SMF6SEG  DS    BL2'0'    SEGMENT DESCRIPTOR
SMF6FLG  DC    BL1'0'    HEADER FLAG BYTE
SMF6RTY  DC    BL1'0'    RECORD TYPE 6
SMFJ6    EQU   6         PRINT/PUNCH RECORD TYPE                   @T8A
SMF6TME  DC    BL4'0'    TOD, USING FORMAT FROM TIME MACRO W/BIN. INTVL
SMF6DTE  DC    PL4'0000'      DATE IN PACKED DECIMAL FORM: 00YYDDDF
SMF6SID  DC    CL4' '    SYSTEM IDENTIFICATION                   Y02901
SMF6JBN  DC    CL8' '   JOB NAME
SMF6RST  DC    BL4'0'   RDR START TIME, TIME JOB CARD 1ST READ @YL02120
SMF6RSD  DC    PL4'0000' READER START DATE  00YYDDDF
SMF6UIF  DC    CL8' '   USER ID FIELD
SMF6OWC  DC    CL1' '   OUTPUT WTR CLASS, BLANK FOR NON-SYSOUT @YL02120
SMF6WST  DC    BL4'0'   WRITER START TIME
SMF6WSD  DC    PL4'0000' WRITER START DATE
SMF6NLR  DC    BL4'0'   # OF LOGICAL RECORDS HANDLED BY WRITER @YL02120
*                       PER FORM # PER CLASS, INCLUDES REPEATS @YL02120
*                       AND RESTARTS.                          @YL02120
SMF6IOE  DC    BL1'0'   IO ERROR INDICATOR:
*                       BITS 0-4 RESERVED                        Y02120
SMF6DIE  EQU   X'04'    5 - DATA INPUT ERROR                   @ZA05171
*                       6 - RESV                                 Y02120
SMFCBIE  EQU   X'01'    7 - CONTROL BLOCK INPUT ERROR          @ZA05171
SMF6NDS  DC    BL1'0'   # OF DATA SETS PROCESSED BY THE OUTPUT   Y02120
*                       WRITER AND INCLUDED IN THIS RECORD.      Y02120
*                       (COUNT FOR EACH TIME A DS IS PRINTED)    Y02120
*                       DOES NOT INCLUDE RESTARTS.             @YL02120
SMF6FMN  DC    CL4' '   FORM NUMBER
SMF6PAD1 DC    BL1'0'   STATUS INDICATORS                      @YL02120
*                       BIT   MEANING                          @ZA10800
SMF6FEXT EQU   X'80'     0    1 - FIRST EXTENSION PRESENT      @ZA10800
*                       1-7   RESERVED                         @ZA10800
SMF6SBS  DS    BL2      SUBSYSTEM GENERATING ID                @YL02120
*                       EXTWTR=0, JES2=2, JES3=5                   @T8C
SMF6LN1  DS    BL2      LENGTH OF SECTION INCLUDING THIS FIELD     @T8C
SMF6DCI  DS    BL1      DS CONTROL INDICATORS FOR DATA GROUP       @T8C
SMF6DCRV EQU   X'80'    0 - RESERVED                               @T8C
SMF6SDS  EQU   X'40'    1 - SPUN OFF DS                        @ZA05171
SMF6OCN  EQU   X'20'    2 - TERMINATED BY OPERATOR             @ZA05171
SMF6ORD  EQU   X'10'    3 - INTERRUPTED BY OPERATOR (JES2)     @ZA05171
*                           OPERATOR RESTARTED DATA SET        @ZA05171
*                           WITH DESTINATION (JES3)            @ZA05171
SMF6OR   EQU   X'08'    4 - RESTARTED BY OPERATOR              @ZA05171
SMF6ROR  EQU   X'04'    5 - CONT OF INTERRUPTED GROUP (JES2)   @ZA05171
*                           RECEIVED OP RESTARTED DS(JES3)     @ZA05171
SMF6OSS  EQU   X'02'    6 - CARRIAGE OVERRIDEN BY OPER(JES2)   @ZA05171
*                           OPERATOR STARTED WITH              @ZA05171
*                           SINGLE SPACE(JES3)                 @ZA05171
SMF6INT  EQU   X'01'    7 - PUNCH WAS INTERPRETED              @ZA05171
SMF6INDC DS    BL1      INDICATOR BITS                             @T8A
*                       BITS 0-3 ARE RESERVED FOR FUTURE EXPANSION @T8A
*                       OF DATASET CONTROL INDICATORS              @T8A
*                       BITS 4-7 ARE RECORD LEVEL INDICATORS IN    @T8A
*                       BIT VALUE FORMAT. EXAMPLE: LEVEL  1=X'01'  @T8A
*                                                  LEVEL 12=X'0C'  @T8A
*                                                  LEVEL 15=X'0F'  @T8A
*                       THIS NUMBER WILL BE INCREMENTED BY 1       @T8A
*                       EACH TIME A NEW RELEASE CHANGES THE RECORD @T8A
SMF6LEV2 EQU   X'01'    THIS VARIABLE IS FOR JES2 TO SET THE LEVEL @T8A
*                       INDICATOR BITS. SMF WILL UPDATE THIS       @T8A
*                       COUNT EACH TIME JES2 REQUESTS AN UPDATE TO @T8A
*                       THIS RECORD.                               @T8A
SMF6LEV3 EQU   X'01'    THIS VARIABLE IS FOR JES3 TO SET THE LEVEL @T8A
*                       INDICATOR BITS. SMF WILL UPDATE THIS       @T8A
*                       COUNT EACH TIME JES3 REQUESTS AN UPDATE TO @T8A
*                       THIS RECORD.                               @T8A
SMF6JNM  DS    CL4      JES ASSIGNED JOB NUMBER                @YL02120
SMF6OUT  DS    CL8      LOGICAL OUTPUT DEVICE NAME             @YL02120
SMF6FCB  DS    CL4      FCB ID                                   Y02120
SMF6UCS  DS    CL4      UCS ID                                   Y02120
*                       END OF RECORD FOR EXTERNAL WTR         @YM04806
SMF6PGE  DS    BL4      APPROX PAGE COUNT(SKIP TO CHANNEL 1)   @YL02120
*                                                              @YL02120
SMF6J2S  EQU   *        BEGIN JES2 ONLY SECTION                @YL02120
SMF6RTE  DS    BL2      OUTPUT ROUTE CODE OR ZERO                  @T8C
SMF6END2 DS    0X       END OF JES2 RECORD                         @T8A
SMF6SIZ2 DS    0XL(SMF6END2-SMFRCD6) SIZE OF JES2 SMF6 RECORD      @T8A
*                                    EXCLUDING OPTIONAL EXTENSIONS @T8A
SMF6SIZ3 DS    0XL(SMF6END2-SMF6LN1) SIZE OF JES2 SMF6 RECORD      @T8A
*                                    FROM SMF6LN1 TO HERE          @T8A
*                                                              @YL02120
         ORG   SMF6J2S                                         @YL02120
SMF6J3S  EQU   *        BEGIN JES3 ONLY SECTION                @YL02120
SMF6DFE  DS    BL2      DATA FORMAT ERROR INDICATORS           @YL02120
*                       BITS 0-5 RESV                          @YL02120
SMF6CCE  EQU   X'02'    6 - SOME 1ST CHAR CONTROL DATA BAD,    @ZA05171
*                           DEFAULT USED                       @YL02120
SMF6RBE  EQU   X'01'    7 - BAD RECORD LENGTH(TRUNCATE OR PAD) @ZA05171
*                       8-15 RESV                              @YL02120
SMF6OPR  DS    BL2      OUTPUT PRIORITY                        @YL02120
SMF6GRP  DS    CL8      LOGICAL OUTPUT DEVICE GROUP NAME       @YL02120
SMF6RSVJ DS    CL8      RESERVED FOR JES3                      @ZA05171
SMF6RSVU DS    CL4      RESERVED FOR USER                      @ZA05171
SMF6END  DS    0X       END OF JES3 BASE RECORD                @ZA05171
SMF6SIZ  DS    0XL(SMF6END-SMFRCD6) SIZE OF JES3 SMF6 RECORD   @ZA05171
*                                   EXCLUDING OPTIONAL EXTENSIONS  @T8A
SMF6LSIZ DS    0XL(SMF6END-SMF6LN1) SIZE OF JES3 SMF6 RECORD       @T8A
*                                   FROM SMF6LN1 TO HERE           @T8A
*                                                                  @T8C
*    FIRST EXTENSION - NON-IMPACT PRINTING SUBSYSTEM SECTION       @T8C
*                      THIS SECTION WILL ONLY BE PRESENT WHEN      @T8A
*                      SMF6SBS IS SET TO 2 OR 5 INDICATING THAT    @T8A
*                      JES2 OR JES3 HAS GENERATED THIS RECORD      @T8A
*                                                                  @T8A
        ORG    SMF6LN1                                         @ZA27193
SMF6LN2  DS    BL2      LENGTH FIRST EXTENSION INCLUDING THIS FLD  @T8C
SMF6CPS  DS    8CL1     COPIES DISTRIBUTION                    @ZA10800
SMF6CHR  DS    4CL4     TRANSLATE TABLE NAMES FRO CHARS PARM   @ZA10800
SMF6MID  DS    CL4      COPY MODIFICATION MODULE NAME          @ZA10800
SMF6FLI  DS    CL4      FLASH OVERLAY NAME                     @ZA10800
SMF6FLC  DS    BL1      NUMBER OF COPIES FLASHED               @ZA10800
SMF6BID  DS    BL1      FLAG BYTE                              @ZA10800
SMF6BTS  EQU   X'80'    THE BTSS WAS USED FOR OUTPUT           @ZA10800
SMF6OPJ  EQU   X'40'    OPTCD=J WAS USED FOR OUTPUT            @ZA10800
SMF6FEND DS    0X       END OF FIRST EXTENSION                     @T8A
SMF6FSIZ DS    0XL(SMF6FEND-SMF6LN2) SIZE OF FIRST EXTENSION       @T8A
         AGO   .CONTB
         MEND                */
 %IFABGN2:;
 %IFAL00: IF IFAR00='' %THEN %GOTO IFAL01;
    DCL 1 SMFRCD00 BASED(SMF00PTR) BDY(WORD),
 /* RECORD TYPE 0 - IPL                                              */
 /* FIRST RECORD WRITTEN DURING IPL - OPTIONS IN EFFECT              */
         3 SMF0LEN FIXED(15),     /* RDW RECORD LENGTH               */
         3 SMF0SEG FIXED(15),     /* RDW SEGMENT DESCRIPTOR          */
         3 SMF0FLG BIT(8),        /* OPERATING ENVIRONMENT           */
         3 SMF0RTY FIXED(8),      /* RECORD TYPE 0                   */
         3 SMF0TME FIXED(31) BDY(BYTE), /* TOD RECORD WRITTEN        */
         3 SMF0DTE CHAR(4),       /* DATE RECORD WRITTEN             */
         3 SMF0SID CHAR(4),       /* SYSTEM ID FROM INSTALLATION     */
         3 SMF0JWT FIXED(31) BDY(BYTE),
                                  /* CONTINUOUS WAIT TIME LIMIT(MIN) */
         3 SMF0BUF FIXED(31) BDY(BYTE), /* VALUE OF BUF KEYWORD      */
         3 SMF0VST FIXED(31) BDY(BYTE), /* VIRTUAL MEMORY SIZE(1K)   */
         3 SMF0OPT BIT(8),        /* SMF OPTIONS BYTE
                                     0-SYSTEM AND JOB
                                     1-STEP
                                     2-EXITS TAKEN
                                     3-DATA SET
                                     4-DASD VOLUMES
                                     5-RESERVED
                                     6-SCRATCH FOR TEMPORARIES
                                     7-=0 FOR BKGD, =1 FOR FRGD      */
         3 SMF0RST FIXED(31) BDY(BYTE); /* REAL STORAGE SIZE(1K)     */
 %IFAL01:;
 %IFAL02: IF IFAR02='' %THEN %GOTO IFAL03;
    DCL 1 SMFRCD02 BASED(SMF02PTR) BDY(WORD),
 /* RECORD TYPE 2 - DUMP HEADER                                      */
 /* WRITTEN AT BEGINNING OF SMF DUMP FILE                            */
         3 SMF2LEN FIXED(15),     /* RDW RECORD LENGTH               */
         3 SMF2SEG FIXED(15),     /* RDW SEGMENT DESCRIPTOR          */
         3 SMF2FLG BIT(8),        /* OPERATING ENVIRONMENT           */
         3 SMF2RTY FIXED(8),      /* RECORD TYPE 2                   */
         3 SMF2TME FIXED(31) BDY(BYTE), /* TOD RECORD WRITTEN        */
         3 SMF2DTE CHAR(4),       /* DATE RECORD WRITTEN             */
         3 SMF2SID CHAR(4);       /* SYSTEM ID FROM INSTALLATION     */
 %IFAL03: IF IFAR03='' %THEN %GOTO IFAL04;
    DCL 1 SMFRCD03 BASED(SMF03PTR) BDY(WORD),
 /* RECORD TYPE 3 - DUMP TRAILER                                     */
 /* WRITTEN AT END OF SMF DUMP FILE                                  */
         3 SMF3LEN FIXED(15),     /* RDW RECORD LENGTH               */
         3 SMF3SEG FIXED(15),     /* RDW SEGMENT DESCRIPTOR          */
         3 SMF3FLG BIT(8),        /* OPERATING ENVIRONMENT           */
         3 SMF3RTY FIXED(8),      /* RECORD TYPE 3                   */
         3 SMF3TME FIXED(31) BDY(BYTE), /* TOD RECORD WRITTEN        */
         3 SMF3DTE CHAR(4),       /* DATE RECORD WRITTEN             */
         3 SMF3SID CHAR(4);       /* SYSTEM ID FROM INSTALLATION     */
 %IFAL04: IF IFAR04='' %THEN %GOTO IFAL05;
    DCL 1 SMFRCD04 BASED(SMF04PTR) BDY(WORD),
 /* RECORD TYPE 4 - STEP TERMINATE                                   */
 /* WRITTEN AT NORMAL OR ABNORMAL TERMINATION OF A BGD JOB STEP      */
         3 SMF4LEN FIXED(15),     /* RDW RECORD LENGTH               */
         3 SMF4SEG FIXED(15),     /* RDW SEGMENT DESCRIPTOR          */
         3 SMF4FLG BIT(8),        /* OPERATING ENVIRONMENT           */
         3 SMF4RTY FIXED(8),      /* RECORD TYPE 4                   */
         3 SMF4TME FIXED(31) BDY(BYTE), /* TOD RECORD WRITTEN        */
         3 SMF4DTE CHAR(4),       /* DATE RECORD WRITTEN             */
         3 SMF4SID CHAR(4),       /* SYSTEM ID FROM INSTALLATION     */
         3 SMF4JBN CHAR(8),       /* JOB NAME                        */
         3 SMF4RST FIXED(31) BDY(BYTE), /* READER START TIME(.01 SEC)*/
         3 SMF4RSD CHAR(4),       /* READER START DATE               */
         3 SMF4UIF CHAR(8),       /* USER IDENTIFICATION FIELD       */
         3 SMF4STN FIXED(8),      /* STEP NUMBER                     */
         3 SMF4SIT FIXED(31) BDY(BYTE), /* STEP INITIATION TIME      */
         3 SMF4STID CHAR(4),      /* STEP INITATION DATE             */
         3 SMF4NCI FIXED(31) BDY(BYTE), /* SPOOL IN COUNT            */