*        %GOTO IFAL74;   /*
         MACRO
&NAME    IFASMFR8 &RECTYPE
.* *                                                                  *
.* * MACMEAN IFASMFR8 MEANS SYSTEM MANAGEMENT FACILITY RECORD MAPPING *
.* * MACCOMP Y-2 SC102/BL27P                                          *
.* * MACSTAT Y-2 73298/42020                                          *
.* * METHOD OF ACCESS                                                 *
.* *  PL/S - INCLUDE MACRO FROM LIBRARY                               *
.* *          EXAMPLE - %INCLUDE SYSLIB(IFASMFR8)                     *
.* *                                                                  *
.* *         THIS MACRO EXPANDS RECORDS 74-79.                        *
.* *                                                                  *
.* *
.* THIS IS AN SMF MACRO WHICH BUILDS SMF RECORDS 74-79. THE REQUIRED
.* FORMAT IS -
.*
.*          IFASMFR8  &RECTYPE
.**********************************************************************
         AIF   (&RECTYPE EQ 74).IFAS074                          Y02150
.E5      ANOP                                                    Y02113
         SPACE 3
         MNOTE 4,'&RECTYPE INVALID RECORD TYPE SPECIFIED'
.CONTB   ANOP
         MEXIT
.IFAS074 ANOP                                                    Y02150
         EJECT                                                   Y02150
*  DEVICE ACTIVITY TRACE TABLE RECORD TYPE 74.                   Y02150
*  VARIABLE LENGTH (MINIMUM 52 BYTES)                            Y02150
*  LENGTH FORMULA = 14 + SIZ + SDC + (DEV*SDD)                   Y02150
         DS    0F       ALIGN TO FULL WORD BOUNDRY               Y02150
SMFRCD74 EQU   *        HEADER SEGMENT                           Y02150
SMF74LEN DS    BL2      RECORD LENGTH                            Y02150
SMF74SEG DS    BL2      SEGMENT DESCRIPTOR                       Y02150
SMF74FLG DS    BL1      HEADER FLAG BYTE                         Y02150
SMF74RTY DS    BL1      RECORD TYPE (74), ONLY HEADER FIELD SET  Y02150
*                       BY GENERATOR OF RECORD                   Y02150
SMF74TME DS    BL4      TOD FROM TIME MACRO BINARY               Y02150
SMF74DTE DS    PL4      DATE FROM TIME MACRO                     Y02150
SMF74SID DS    CL4      SYSTEM IDENTIFICATION                    Y02150
*                       COMMON CONTROL DATA                      Y02150
SMF74SIZ DS    BL2      SIZE OF COMMON CONTROL DATA SECTION      Y02150
SMF74IST DS    PL4      TOD MEASUREMENT INTERVAL START OHHMMSSF  Y02150
SMF74DAT DS    PL4      DATE INTERVAL START 00YYDDDF             Y02150
SMF74INT DS    PL4      DURATION OF INTERVAL MMSSTTTF            Y02150
SMF74CYC DS    BL2      SAMPLE CYCLE LENGTH TTTF                 Y02150
SMF74SUB DS    BL2      UCB DEVICE TYPE CODE IN RIGHT BYTE       Y02150
SMF74SAM DS    BL4      # OF SAMPLES                             Y02150
SMF74MFV DS    CL2      MF/1 VERSION # IN EBCDIC                 Y02150
SMF74RV1 DS    BL2      RESV                                     Y02150
SMF74RLS DS    CL4      OP SYS REL # & LEVEL IN EBCDIC  NNLL     Y02150
*                       DEVICE CONTROL AREA                      Y02150
SMF74SDC DS    BL2      SIZE OF DEVICE CONTROL AREA              Y02150
SMF74DEV DS    BL2      # OF MEASUREMENTS IN DEVICE DATA AREA    Y02150
SMF74SDD DS    BL2      SIZE OF EACH DEVICE DATA AREA            Y02150
SMF74RV2 DS    BL2      RESV                                     Y02150
*                       DEVICE DATA AREA                         Y02150
SMF74ADD DS    PL2      DEVICE ADDRESS HHHF                      Y02150
SMF74RV3 DS    BL1      RESV                                     Y02150
SMF74CNF DS    BL1      CONFIGURATION ACTIVITY                   Y02150
SMF74VAC EQU   2        .... ..1. DATA INVALID, VARIED ON OR OFF Y02150
SMF74STA EQU   1        .... ...1 DEVICE IS CURRENTLY ONLINE     Y02150
SMF74TYP DS    BL4      UCBTYP WORD                              Y02150
SMF74SER DS    CL6      VOLUME SERIAL #                          Y02150
SMF74RV4 DS    CL2      RESV                                     Y02150
SMF74CNT DS    BL4      # OF REQUESTS SERVICED BY THIS DEVICE    Y02150
SMF74ACT DS    BL4      # OF SAMPLES WHEN DEVICE WAS BUSY        Y02150
SMF74QUE DS    BL4      SUM OF # OF ENQ REQUESTS OBSERVED        Y02150
         ORG   SMF74ADD                                          Y02150
         AGO   .CONTB                                            Y02150
         MEND                */
 %IFAL74: IF IFAR74='' %THEN %GOTO IFAL75;
   DCL 1 SMFRCD74 BASED(SMF74PTR) BDY(WORD),
 /* RECORD TYPE 74 - DEVICE ACTIVITY                                 */
         3 SMF74LEN FIXED(15),    /* RDW RECORD LENGTH               */
         3 SMF74SEG FIXED(15),    /* RDW SEGMENT DESCRIPTOR          */
         3 SMF74FLG BIT(8),       /* OPERATING ENVIRONMENT           */
         3 SMF74RTY FIXED(8),     /* RECORD TYPE 74                  */
         3 SMF74TME FIXED(31) BDY(BYTE), /* TOD RECORD WRITTEN       */
         3 SMF74DTE CHAR(4),      /* DATA RECORD WRITTEN             */
         3 SMF74SID CHAR(4),      /* SYSTEM ID FROM INSTALLATION     */
                                  /* COMMON CONTROL DATA             */
         3 SMF74SIZ PTR(15),      /* SIZE OF COMMON CONTROL DATA AREA*/
         3 SMF74IST CHAR(4),      /* TOD INTERVAL START 0HHMMSSF     */
         3 SMF74DAT CHAR(4),      /* DATE INTERVAL START 00YYDDDF    */
         3 SMF74INT CHAR(4),      /* DURATION OF INTERVAL MMSSTTTF   */
         3 SMF74CYC CHAR(2),      /* SAMPLE CYCLE LENGTH TTTF        */
         3 SMF74SUB CHAR(2),      /* UCB DEV TYPE CODE IN RIGHT BYTE */
         3 SMF74SAM FIXED(32),    /* # OF SAMPLES                    */
         3 SMF74MFV CHAR(2),      /* MF/1 VERSION #                  */
         3 SMF74RV1 CHAR(2),      /* RESV                            */
         3 SMF74RLS CHAR(4);      /* OP SYS REL # & LEVEL  NNLL      */
 /* DEVICE CONTROL AREA VARIABLES                                    */
    DCL 1 SMF74A BASED(ADDR(SMF74SIZ)+SMF74SIZ) BDY(WORD),
         3 SMF74SDC PTR(15),      /* SIZE OF DEVICE CONTROL AREA     */
         3 SMF74DEV FIXED(15),    /* # MEASUREMENTS IN DEV DATA AREA */
         3 SMF74SDD FIXED(15),    /* SIZE OF EACH DEVICE DATA AREA   */
         3 SMF74RV2 CHAR(2);      /* RESV                            */
 /* DEVICE DATA AREA VARIABLES                                       */
    DCL 1 SMF74B (*) BASED(ADDR(SMF74SDC)+SMF74SDC) BDY(WORD),
         3 SMF74ADD CHAR(2),      /* DEVICE ADDRESS  HHHF            */
         3 SMF74RV3 CHAR(1),      /* RESV                            */
         3 SMF74CNF BIT(8),       /* CONFIGURATION ACTIVITY          */
          5 * BIT(6),             /* RESV                            */
          5 SMF74VAC BIT(1),      /* DATA INVALID, VARIED ON OR OFF,
                                     OR DYNAMIC RECONFIGURATION      */
          5 SMF74STA BIT(1),      /* =1 FOR ONLINE AT END OF INTERVAL*/
         3 SMF74TYP CHAR(4),      /* UNIT TYPE FROM UCBTYP FIELD     */
         3 SMF74SER CHAR(6),      /* VOLUME SERIAL #                 */
         3 SMF74RV4 CHAR(2),      /* RESV                            */
         3 SMF74CNT FIXED(32),    /* SIO'S SERVICED BY THIS DEVICE   */
         3 SMF74ACT FIXED(32),    /* # SAMPLES WHEN DEVICE WAS BUSY  */
         3 SMF74QUE FIXED(32);    /* SUM OF # REQUESTS ENQ TO DEVICE */
 %IFAL75: ;
