*        %GOTO IFAL70;   /*
         MACRO
&NAME    IFASMFR7 &RECTYPE
.* *                                                                  *
.* * MACMEAN IFASMFR7 MEANS SYSTEM MANAGEMENT FACILITY RECORD MAPPING *
.* * MACCOMP Y-2 SC102/BL27P                                          *
.* * MACSTAT Y-2 73298/42020                                          *
.* * METHOD OF ACCESS                                                 *
.* *  PL/S - INCLUDE MACRO FROM LIBRARY                               *
.* *          EXAMPLE - %INCLUDE SYSLIB(IFASMFR7)                     *
.* *                                                                  *
.* *          THIS MACRO EXPANDS RECORDS 70-73.                       *
.* *                                                                  *
.* *
.* THIS IS AN SMF MACRO WHICH BUILDS SMF RECORDS 70-73. THE REQUIRED
.* FORMAT IS -
.*
.*         IFASMFR7  &RECTYPE
.**********************************************************************
         AIF   (&RECTYPE EQ 70).IFAS070                         Y02150
         AIF   (&RECTYPE EQ 71).IFAS071                         Y02150
         AIF   (&RECTYPE EQ 72).IFAS072                         Y02150
         AIF   (&RECTYPE EQ 73).IFAS073                         Y02150
.E5      ANOP                                                    Y02150
         SPACE 3
         MNOTE 4,'&RECTYPE INVALID RECORD TYPE SPECIFIED'
.CONTB   ANOP
         MEXIT
.IFAS070 ANOP                                                    Y02150
         EJECT                                                   Y02150
*  CPU ACTIVITY TRACE RECORD TYPE 70.                            Y02150
*  VARIABLE LENGTH (MINIMUM 52 BYTES)
*  LENGTH FORMULA = 14 + SIZ + SCC + (CPU*SCD)                   Y02150
*                                                                Y02150
         DS    0F       ALIGN TO FULL WORD BOUNDRY               Y02150
SMFRCD70 EQU   *        HEADER SEGMENT                           Y02150
SMF70LEN DS    BL2      RECORD LENGTH                            Y02150
SMF70SEG DS    BL2      SEGMENT DESCRIPTOR                       Y02150
SMF70FLG DS    BL1      HEADER FLAG BYTE                         Y02150
SMF70RTY DS    BL1      RECORD TYPE (70), ONLY HEADER FIELD SET  Y02150
*                       BY GENERATOR OF RECORD                   Y02150
SMF70TME DS    BL4      TOD FROM TIME MACRO BINARY               Y02150
SMF70DTE DS    PL4      DATE FROM TIME MACRO                     Y02150
SMF70SID DS    CL4      SYSTEM IDENTIFICATION                    Y02150
*                       COMMON CONTROL DATA                      Y02150
SMF70SIZ DS    BL2      SIZE OF COMMON CONTROL DATA SECTION      Y02150
SMF70IST DS    PL4      TOD MEASUREMENT INTERVAL START 0HHMMSSF  Y02150
SMF70DAT DS    PL4      DATE INTERVAL START 00YYDDDF             Y02150
SMF70INT DS    PL4      DURATION OF INTERVAL MMSSTTTF            Y02150
SMF70CYC DS    PL2      RESV                                     Y02150
SMF70SUB DS    BL2      RESV                                     Y02150
SMF70SAM DS    BL4      RESV                                     Y02150
SMF70MFV DS    CL2      MF/1 VERSION # IN EBCDIC                 Y02150
SMF70RV1 DS    BL2      RESV                                     Y02150
SMF70RLS DS    CL4      OP SYS REL # & LEVEL IN EBCDIC  NNLL     Y02150
*                       CPU CONTROL AREA                         Y02150
SMF70SCC DS    BL2      SIZE OF CPU CONTROL AREA                 Y02150
SMF70CPU DS    BL2      # CPU MEASUREMENTS IN CPU DATA AREA      Y02150
SMF70SCD DS    BL2      SIZE OF EACH CPU DATA AREA               Y02150
SMF70RV2 DS    BL2      RESV                                     Y02150
*                       CPU DATA AREA                            Y02150
SMF70WAT DS    BL8      CPU WAIT IN TOD FORMAT(BIT 51=1 MICRO)   Y02150
SMF70CID DS    BL2      CPU ID                                   Y02150
SMF70RV3 DS    BL1      RESV                                     Y02150
SMF70CNF DS    BL1      CONFIGURATION ACTIVITY                   Y02150
SMF70VAC EQU   2        DATA INVALID, CPU VARIED ON OR OFF       Y02150
SMF70STA EQU   1        CPU IS CURRENTLY ONLINE                  Y02150
SMF70RV4 DS    BL1      RESV                                     Y02150
SMF70SER DS    CL3      CPU SERIAL #(6 HEX DIGITS)               Y02150
         ORG   SMF70WAT                                          Y02150
         AGO   .CONTB                                            Y02150
.IFAS071 ANOP                                                    Y02150
         EJECT                                                   Y02150
*  PAGING ACTIVITY TRACE TABLE RECORD TYPE 71.                   Y02150
*  VARIABLE LENGTH (MINIMUM 132 BYTES)                           Y02150
*  LENGTH FORMULA = 14 + SIZ + SPC + SPD                         Y02150
*                                                                Y02150
         DS    0F       ALIGN TO FULL WORD BOUNDRY               Y02150
SMFRCD71 EQU   *        HEADER SEGMENT                           Y02150
SMF71LEN DS    BL2      RECORD LENGTH                            Y02150
SMF71SEG DS    BL2      SEGMENT DESCRIPTOR                       Y02150
SMF71FLG DS    BL1      HEADER FLAG BYTE                         Y02150
SMF71RTY DS    BL1      RECORD TYPE (71), ONLY HEADER FIELD SET  Y02150
*                       BY GENERATOR OF RECORD                   Y02150
SMF71TME DS    BL4      TOD FROM TIME MACRO BINARY               Y02150
SMF71DTE DS    PL4      DATE FROM TIME MACRO                     Y02150
SMF71SID DS    CL4      SYSTEM IDENTIFICATION                    Y02150
*                       COMMON CONTROL DATA                      Y02150
SMF71SIZ DS    BL2      SIZE OF COMMON CONTROL DATA SECTION      Y02150
SMF71IST DS    PL4      TOD MEASUREMENT INTERVAL START 0HHMMSSF  Y02150
SMF71DAT DS    PL4      DATE INTERVAL START 00YYDDDF             Y02150
SMF71INT DS    PL4      DURATION OF INTERVAL MMSSTTTF            Y02150
SMF71CYC DS    BL2      RESV                                     Y02150
SMF71SUB DS    BL2      RESV                                     Y02150
SMF71SAM DS    BL4      RESV                                     Y02150
SMF71MFV DS    CL2      MF/1 VERSION # IN EBCDIC                 Y02150
SMF71RV1 DS    BL2      RESV                                     Y02150
SMF71RLS DS    CL4      OP SYS REL # & LEVEL IN EBCDIC  NNLL     Y02150
*                       PAGING CONTROL AREA                      Y02150
SMF71SPC DS    BL2      SIZE OF PAGING CONTROL AREA              Y02150
SMF71SPD DS    BL2      SIZE OF PAGING DATA AREA                 Y02150
*                       PAGING DATA AREA                         Y02150
SMF71PIN DS    BL4      PAGE-INS EXCLUDING VIO AND SWAP          Y02150
SMF71POT DS    BL4      PAGE-OUTS EXCLUDING VIO AND SWAP         Y02150
SMF71PRC DS    BL4      PAGE RECLAIMS EXCLUDING VIO              Y02150
SMF71SSQ DS    BL4      # OF MEMORY SWAP SEQUENCES               Y02150
SMF71SIN DS    BL4      SWAP-IN PAGES                            Y02150
SMF71SOT DS    BL4      SWAP-OUT PAGES                           Y02150
SMF71VIN DS    BL4      VIO PAGE-INS                             Y02150
SMF71VOT DS    BL4      VIO PAGE-OUTS                            Y02150
SMF71VRC DS    BL4      VIO PAGE RECLAIMS                        Y02150
SMF71SNI DS    BL4      SYSTEM PAGABLE AREAS NON-VIO PAGE-INS    Y02150
SMF71SNO DS    BL4      SPA NON-VIO PAGE-OUTS                    Y02150
SMF71SNR DS    BL4      SPA NON-VIO PAGE RECLAIMS                Y02150
SMF71SVI DS    BL4      SPA VIO PAGE-INS                         Y02150
SMF71SVO DS    BL4      SPA VIO PAGE-OUTS                        Y02150
SMF71SVR DS    BL4      SPA VIO PAGE RECLAIMS                    Y02150
SMF71AFC DS    BL4      MAIN STORAGE AVAILABLE FRAME COUNT       Y02150
SMF71TFC DS    BL4      MAIN STORAGE TOTAL FRAME COUNT           Y02150
SMF71TSC DS    BL4      AUX TOTAL SLOT COUNT                     Y02150
SMF71DSC DS    BL4      AUX DATA SET SLOT COUNT                  Y02150
SMF71VSC DS    BL4      AUX VIRTUAL MEMORY SLOT COUNT            Y02150
SMF71NSC DS    BL4      AUX UNALLOCATED SLOT COUNT               Y02150
         AGO   .CONTB                                            Y02150
.IFAS072 ANOP                                                    Y02150
         EJECT                                                   Y02150
*  WORKLOAD ACTIVITY TRACE RECORD TYPE 72.                       Y02150
*  VARIABLE LENGTH (MINIMUM 60 BYTES)                            Y02150
*  LENGTH FORMULA = 14 + SIZ + SWC + (PGP*SPD)                   Y02150
*                                                                Y02150
         DS    0F       ALIGN TO FULL WORD BOUNDRY               Y02150
SMFRCD72 EQU   *        HEADER SEGMENT                           Y02150
SMF72LEN DS    BL2      RECORD LENGTH                            Y02150
SMF72SEG DS    BL2      SEGMENT DESCRIPTOR                       Y02150
SMF72FLG DS    BL1      HEADER FLAG BYTE                         Y02150
SMF72RTY DS    BL1      RECORD TYPE (72), ONLY HEADER FIELD SET  Y02150
*                       BY GENERATOR OF RECORD                   Y02150
SMF72TME DS    BL4      TOD FROM TIME MACRO BINARY               Y02150
SMF72DTE DS    PL4      DATE FROM TIME MACRO                     Y02150
SMF72SID DS    CL4      SYSTEM IDENTIFICATION                    Y02150
*                       COMMON CONTROL DATA                      Y02150
SMF72SIZ DS    BL2      SIZE OF COMMON CONTROL DATA SECTION      Y02150
SMF72IST DS    PL4      TOD MEASUREMENT INTERVAL START OHHMMSSF  Y02150
SMF72DAT DS    PL4      DATE INTERVAL START 00YYDDDF             Y02150
SMF72INT DS    PL4      DURATION OF INTERVAL MMSSTTTF            Y02150
SMF72CYC DS    BL2      RESV                                     Y02150
SMF72SUB DS    BL2      PERFORMANCE GROUP #                      Y02150
SMF72SAM DS    BL4      RESV                                     Y02150
SMF72MFV DS    CL2      MF/1 VERSION # IN EBCDIC                 Y02150
SMF72RV1 DS    BL2      RESV                                     Y02150
SMF72RLS DS    CL4      OP SYS REL # & LEVEL IN EBCDIC  NNLL     Y02150
*                       WORKLOAD CONTROL AREA                    Y02150
SMF72SWC DS    BL2      SIZE OF WORKLOAD CONTROL AREA            Y02150
SMF72PGP DS    BL2      # OF PGP MEASUREMENT IN PGP DATA AREA    Y02150
SMF72SPD DS    BL2      SIZE OF EACH PGP DATA AREA               Y02150
SMF72HPG DS    BL2      HIGHEST PERF GROUP(PG) # DEFINED IN IPS  Y02150
SMF72IPS DS    CL8      NAME OF INSTALLATION PERF SPEC           Y02150
*                       PERF GROUP PERIOD DATA                   Y02150
SMF72TTX DS    BL4      # OF TERMINATED TRANSACTIONS             Y02150
SMF72ACT DS    BL4      ALL TRANSACTIONS ACTIVE TIME-1K MIC SEC  Y02150
SMF72SER DS    BL4      ALL TRANSACTIONS SERVICE UNITS           Y02150
SMF72TTM DS    BL4      TERM TRANS ELAPSED TIME-1K MIC SEC       Y02150
SMF72LEV DS    BL4      WORKLOAD LEVEL (1/256 OF A LEVEL)        Y02150
         ORG   SMF72TTX
         AGO   .CONTB                                            Y02150
.IFAS073 ANOP                                                    Y02150
         EJECT                                                   Y02150
*  CHANNEL ACTIVITY TRACE TABLE RECORD TYPE 73.                  Y02150
*  VARIABLE LENGTH (MINIMUM 52 BYTES)                            Y02150
*  LENGTH FORMULA = 14 + SIZ + SHC + (CHA*SHD)                   Y02150
         DS    0F       ALIGN TO FULL WORD BOUNDRY               Y02150
SMFRCD73 EQU   *        HEADER SEGMENT                           Y02150
SMF73LEN DS    BL2      RECORD LENGTH                            Y02150
SMF73SEG DS    BL2      SEGMENT DESCRIPTOR                       Y02150
SMF73FLG DS    BL1      HEADER FLAG BYTE                         Y02150
SMF73RTY DS    BL1      RECORD TYPE (73), ONLY HEADER FIELD SET  Y02150
*                       BY GENERATOR OF RECORD                   Y02150
SMF73TME DS    BL4      TOD FROM TIME MACRO BINARY               Y02150
SMF73DTE DS    PL4      DATE FROM TIME MACRO                     Y02150
SMF73SID DS    CL4      SYSTEM INDENTIFICATION                   Y02150
*                       COMMON CONTROL DATA                      Y02150
SMF73SIZ DS    BL2      SIZE OF COMMON CONTROL DATA SECTION      Y02150
SMF73IST DS    PL4      TOD MEASUREMENT INTERVAL START OHHMMSSF  Y02150
SMF73DAT DS    PL4      DATE INTERVAL START 00YYDDDF             Y02150
SMF73INT DS    PL4      DURATION OF INTERVAL MMSSTTTF            Y02150
SMF73CYC DS    PL2      SAMPLING CYCLE LENGTH TTTF               Y02150
SMF73SUB DS    BL2      RESV                                     Y02150
SMF73SAM DS    BL4      # OF SAMPLES                             Y02150
SMF73MFV DS    CL2      MF/1 VERSION # IN EBCDIC                 Y02150
SMF73RV1 DS    BL2      RESV                                     Y02150
SMF73RLS DS    CL4      OP SYS REL # & LEVEL IN EBCDIC  NNLL     Y02150
*                       CHANNEL CONTROL AREA                     Y02150
SMF73SHC DS    BL2      SIZE OF CHANNEL CONTROL AREA             Y02150
SMF73CHA DS    BL2      # OF MEASUREMENTS IN CHANNEL DATA AREA   Y02150
SMF73SHD DS    BL2      SIZE OF EACH CHANNEL DATA AREA           Y02150
SMF73RV2 DS    BL2      RESV                                     Y02150
*                       CHANNEL DATA AREA                        Y02150
SMF73CID DS    BL2      CPU IDENTIFIER                           Y02150
SMF73HID DS    BL1      CHANNEL IDENTIFIER                       Y02150
SMF73FG2 DS    BL1      FLAGS                                    Y02150
*                       XXXX .... TYPE OF CHANNEL                Y02150
*                       0000 .... SELECTOR CHANNEL               Y02150
*                       0001 .... BYTE MULTIPLEXOR               Y02150
*                       0010 .... BLOCK MULTIPLEXOR              Y02150
SMF73IID EQU   4        .... .1.. INVALID CHANNEL ID             Y02150
SMF73VAC EQU   2        .... ..1. DATA INVALID, VARIED ON OR OFF Y02150
SMF73STA EQU   1        .... ...1 CHANNEL IS CURRENTLY ONLINE    Y02150
SMF73CNT DS    BL4      # OF SUCCESSFUL SIO ISSUED TO CHANNEL    Y02150
SMF73BSY DS    BL4      # SAMPLES WHEN CHAN WAS IN BURST MODE    Y02150
*                       FIELD 0 FOR BYTE MULTIPLEX CHANNEL       Y02150
SMF73OLP DS    BL4      # SAMPLES CHAN BUSY & CPU WAIT           Y02150
*                       FIELD 0 FOR BYTE MULTIPLEX CHANNEL       Y02150
         ORG   SMF73CID                                          Y02150
         AGO   .CONTB                                            Y02150
         MEND            */

 %IFAL70: IF IFAR70='' %THEN %GOTO IFAL71;
    DCL 1 SMFRCD70 BASED(SMF70PTR) BDY(WORD),
 /* RECORD TYPE 70 - CPU ACTIVITY                                    */
         3 SMF70LEN FIXED(15),    /* RDW RECORD LENGTH               */
         3 SMF70SEG FIXED(15),    /* RDW SEGMENT DESCRIPTOR          */
         3 SMF70FLG BIT(8),       /* OPERATING ENVIRONMENT           */
         3 SMF70RTY FIXED(8),     /* RECORD TYPE 70                  */
         3 SMF70TME FIXED(31) BDY(BYTE), /* TOD RECORD WRITTEN       */
         3 SMF70DTE CHAR(4),      /* DATE RECORD WRITTEN             */
         3 SMF70SID CHAR(4),      /* SYSTEM ID FROM INSTALLATION     */
                                  /* COMMON CONTROL DATA             */
         3 SMF70SIZ PTR(15),      /* SIZE OF COMMON CONTROL DATA AREA*/
         3 SMF70IST CHAR(4),      /* TOD INTERVAL START 0HHMMSSF     */
         3 SMF70DAT CHAR(4),      /* DATE INTERVAL START 00YYDDDF    */
         3 SMF70INT CHAR(4),      /* DURATION OF INTERVAL MMSSTTTF   */
         3 SMF70CYC CHAR(2),      /* RESV                            */
         3 SMF70SUB CHAR(2),      /* RESV                            */
         3 SMF70SAM FIXED(32),    /* RESV                            */
         3 SMF70MFV CHAR(2),      /* MF/1 VERSION #                  */
         3 SMF70RV1 CHAR(2),      /* RESV                            */
         3 SMF70RLS CHAR(4);      /* OP SYS REL # & LEVEL  NNLL      */
 /* CPU CONTROL AREA VARIABLES                                       */
    DCL 1 SMF70A BASED(ADDR(SMF70SIZ)+SMF70SIZ) BDY(WORD),
         3 SMF70SCC PTR(15),      /* SIZE OF CPU CONTROL AREA        */
         3 SMF70CPU FIXED(15),    /* # CPU MEASUREMENTS IN CPU DATA  */
         3 SMF70SCD FIXED(15),    /* SIZE OF EACH CPU DATA AREA      */
         3 SMF70RV2 CHAR(2);      /* RESV                            */
 /* CPU DATA AREA VARIABLES                                          */
    DCL 1 SMF70B (*) BASED(ADDR(SMF70SCC)+SMF70SCC) BDY(WORD),
         3 SMF70WAT CHAR(8),      /* CPU WAIT, TOD CLOCK FORMAT      */
         3 SMF70CID FIXED(15),    /* CPU IDENTIFIER                  */
         3 SMF70RV3 CHAR(1),      /* RESV                            */
         3 SMF70CNF BIT(8),       /* CONFIGURATION ACTIVITY          */
          5 * BIT(6),             /* RESV                            */
          5 SMF70VAC BIT(1),      /* DATA INVALID, VARIED ON OR OFF  */
          5 SMF70STA BIT(1),      /* =1 FOR ONLINE AT END OF INTERVAL*/
         3 SMF70RV4 CHAR(1),      /* RESV                            */
         3 SMF70SER CHAR(3);      /* CPU SERIAL #  FORM HHHHHH       */
 %IFAL71: IF IFAR71='' %THEN %GOTO IFAL72;
    DCL 1 SMFRCD71 BASED(SMF71PTR) BDY(WORD),
 /* RECORD TYPE 71 - PAGING ACTIVITY                                 */
         3 SMF71LEN FIXED(15),    /* RDW RECORD LENGTH               */
         3 SMF71SEG FIXED(15),    /* RDW SEGMENT DESCRIPTOR          */
         3 SMF71FLG BIT(8),       /* OPERATING ENVIRONMENT           */
         3 SMF71RTY FIXED(8),     /* RECORD TYPE 71                  */
         3 SMF71TME FIXED(31) BDY(BYTE), /* TOD RECORD WRITTEN       */
         3 SMF71DTE CHAR(4),      /* DATE RECORD WRITTEN             */
         3 SMF71SID CHAR(4),      /* SYSTEM ID FROM INSTALLATION     */
                                  /* COMMON CONTROL DATA             */
         3 SMF71SIZ PTR(15),      /* SIZE OF COMMON CONTROL DATA AREA*/
         3 SMF71IST CHAR(4),      /* TOD INTERVAL START 0HHMMSSF     */
         3 SMF71DAT CHAR(4),      /* DATE INTERVAL START 00YYDDDF    */
         3 SMF71INT CHAR(4),      /* DURATION OF INTERVAL MMSSTTTF   */
         3 SMF71CYC CHAR(2),      /* RESV                            */
         3 SMF71SUB CHAR(2),      /* RESV                            */
         3 SMF71SAM FIXED(32),    /* RESV                            */
         3 SMF71MFV CHAR(2),      /* MF/1 VERSION #                  */
         3 SMF71RV1 CHAR(2),      /* RESV                            */
         3 SMF71RLS CHAR(4);      /* OP SYS REL # & LEVEL  NNLL      */
 /* PAGING CONTROL AREA VARIABLES                                    */
    DCL 1 SMF71A BASED(ADDR(SMF71SIZ)+SMF71SIZ) BDY(WORD),
         3 SMF71SPC PTR(15),      /* SIZE OF PAGING CONTROL AREA     */
         3 SMF71SPD FIXED(15);    /* SIZE OF PAGING DATA AREA        */
 /* PAGING DATA AREA VARIABLES                                       */
    DCL 1 SMF71B BASED(ADDR(SMF71SPC)+SMF71SPC) BDY(WORD),
         3 SMF71PIN FIXED(32),    /* PAGE-INS EXCLUDING VIO AND SWAP */
         3 SMF71POT FIXED(32),    /* PAGE-OUTS EXCLUDING VIO AND SWAP*/
         3 SMF71PRC FIXED(32),    /* PAGE RECLAIMS EXCLUDING VIO     */
         3 SMF71SSQ FIXED(32),    /* # OF MEMORY SWAP SEQUENCES      */
         3 SMF71SIN FIXED(32),    /* SWAP-IN PAGES                   */
         3 SMF71SOT FIXED(32),    /* SWAP-OUT PAGES                  */
         3 SMF71VIN FIXED(32),    /* VIO PAGE-INS                    */
         3 SMF71VOT FIXED(32),    /* VIO PAGE-OUTS                   */
         3 SMF71VRC FIXED(32),    /* VIO PAGE RECLAIMS               */
         3 SMF71SNI FIXED(32),    /* SYS PGABLE AREAS NON-VIO PAGE-IN*/
         3 SMF71SNO FIXED(32),    /* SPA NON-VIO PAGE-OUTS           */
         3 SMF71SNR FIXED(32),    /* SPA NON-VIO PAGE RECLAIMS       */
         3 SMF71SVI FIXED(32),    /* SPA VIO PAGE-INS                */
         3 SMF71SVO FIXED(32),    /* SPA VIO PAGE-OUTS               */
         3 SMF71SVR FIXED(32),    /* SPA VIO PAGE RECLAIMS           */
         3 SMF71AFC FIXED(32),    /* MAIN STOR AVAILABLE FRAME COUNT */
         3 SMF71TFC FIXED(32),    /* MAIN STOR TOTAL FRAME COUNT     */
         3 SMF71TSC FIXED(32),    /* AUX TOTAL SLOT COUNT            */
         3 SMF71DSC FIXED(32),    /* AUX DATA SET SLOT COUNT         */
         3 SMF71VSC FIXED(32),    /* AUX VIRT MEMORY SLOT COUNT      */
         3 SMF71NSC FIXED(32);    /* AUX UNALLOCATED SLOT COUNT      */
 %IFAL72: IF IFAR72='' %THEN %GOTO IFAL73;
    DCL 1 SMFRCD72 BASED(SMF72PTR) BDY(WORD),
 /* RECORD TYPE 72 - WORKLOAD ACTIVITY                               */
         3 SMF72LEN FIXED(15),    /* RDW RECORD LENGTH               */
         3 SMF72SEG FIXED(15),    /* RDW SEGMENT DESCRIPTOR          */
         3 SMF72FLG BIT(8),       /* OPERATING ENVIRONMENT           */
         3 SMF72RTY FIXED(8),     /* RECORD TYPE 72                  */
         3 SMF72TME FIXED(31) BDY(BYTE), /* TOD RECORD WRITTEN       */
         3 SMF72DTE CHAR(4),      /* DATE RECORD WRITTEN             */
         3 SMF72SID CHAR(4),      /* SYSTEM ID FROM INSTALLATION     */
                                  /* COMMON CONTROL DATA             */
         3 SMF72SIZ PTR(15),      /* SIZE OF COMMON CONTROL DATA AREA*/
         3 SMF72IST CHAR(4),      /* TOD INTERVAL START 0HHMMSSF     */
         3 SMF72DAT CHAR(4),      /* DATE INTERVAL START 00YYDDDF    */
         3 SMF72INT CHAR(4),      /* DURATION OF INTERVAL MMSSTTTF   */
         3 SMF72CYC CHAR(2),      /* RESV                            */
         3 SMF72SUB CHAR(2),      /* SUB-CATEGORY CODE, PERF GROUP # */
         3 SMF72SAM FIXED(32),    /* RESV                            */
         3 SMF72MFV CHAR(2),      /* MF/1 VERSION #                  */
         3 SMF72RV1 CHAR(2),      /* RESV                            */
         3 SMF72RLS CHAR(4);      /* OP SYS REL # & LEVEL  NNLL      */
 /* WORKLOAD CONTROL AREA VARIABLES                                  */
    DCL 1 SMF72A BASED(ADDR(SMF72SIZ)+SMF72SIZ) BDY(WORD),
         3 SMF72SWC PTR(15),      /* SIZE OF WORKLOAD CONTROL AREA   */
         3 SMF72PGP FIXED(15),    /*# OF PGP MEASUREMENTS IN PGP DATA*/
         3 SMF72SPD FIXED(15),    /* SIZE OF EACH PGP DATA AREA      */
         3 SMF72HPG FIXED(15),    /* HIGHEST PERF GP # DEFINED IN IPS*/
         3 SMF72IPS CHAR(8);      /* NAME OF IPS(INSTAL PERF SPEC)   */
 /* PERFORMANCE GROUP PERIOD DATA                                    */
    DCL 1 SMF72B (*) BASED(ADDR(SMF72SWC)+SMF72SWC) BDY(WORD),
         3 SMF72TTX FIXED(32),    /* # OF TERMINATED TRANSACTIONS    */
         3 SMF72ACT FIXED(32),    /*ALL TRANS ACTIVE TIME-1K MIC SEC */
         3 SMF72SER FIXED(32),    /* ALL TRANS SERVICE UNITS         */
         3 SMF72TTM FIXED(32),    /*TERM TRANS ELAPSED TIME-1K MICSEC*/
         3 SMF72LEV FIXED(31);    /* WORKLOAD LEVEL(1/256 OF A LEVEL)*/
 %IFAL73: IF IFAR73='' %THEN %GOTO IFALR8;
    DCL 1 SMFRCD73 BASED(SMF73PTR) BDY(WORD),
 /* RECORD TYPE 73 - CHANNEL ACTIVITY                                */
         3 SMF73LEN FIXED(15),    /* RDW RECORD LENGTH               */
         3 SMF73SEG FIXED(15),    /* RDW SEGMENT DESCRIPTOR          */
         3 SMF73FLG BIT(8),       /* OPERATING ENVIRONMENT           */
         3 SMF73RTY FIXED(8),     /* RECORD TYPE 73                  */
         3 SMF73TME FIXED(31) BDY(BYTE), /* TOD RECORD WRITTEN       */
         3 SMF73DTE CHAR(4),      /* DATA RECORD WRITTEN             */
         3 SMF73SID CHAR(4),      /* SYSTEM ID FROM INSTALLATION     */
                                  /* COMMON CONTROL DATA             */
         3 SMF73SIZ PTR(15),      /* SIZE OF COMMON CONTROL DATA AREA*/
         3 SMF73IST CHAR(4),      /* TOD INTERVAL START 0HHMMSSF     */
         3 SMF73DAT CHAR(4),      /* DATE INTERVAL START 00YYDDDF    */
         3 SMF73INT CHAR(4),      /* DURATION OF INTERVAL MMSSTTTF   */
         3 SMF73CYC CHAR(2),      /* SAMPLE CYCLING LENGTH TTTF      */
         3 SMF73SUB CHAR(2),      /* RESV                            */
         3 SMF73SAM FIXED(32),    /* # OF SAMPLES                    */
         3 SMF73MFV CHAR(2),      /* MF/1 VERSION #                  */
         3 SMF73RV1 CHAR(2),      /* RESV                            */
         3 SMF73RLS CHAR(4);      /* OP SYS REL # & LEVEL  NNLL      */
 /* CHANNEL CONTROL AREA VARIABLES                                   */
    DCL 1 SMF73A BASED(ADDR(SMF73SIZ)+SMF73SIZ) BDY(WORD),
         3 SMF73SHC PTR(15),      /* SIZE OF CHANNEL CONTROL AREA    */
         3 SMF73CHA FIXED(15),    /* # MEASUREMENT IN CHAN DATA AREA */
         3 SMF73SHD FIXED(15),    /* SIZE OF EACH CHANNEL DATA AREA  */
         3 SMF73RV2 CHAR(2);      /* RESV                            */
 /* CHANNEL DATA AREA VARIABLES                                      */
    DCL 1 SMF73B (*) BASED(ADDR(SMF73SHC)+SMF73SHC) BDY(WORD),
         3 SMF73CID FIXED(15),    /* CPU IDENTIFIER                  */
         3 SMF73HID FIXED(8),     /* CHANNEL IDENTIFIER              */
         3 SMF73FG2 BIT(8),       /* FLAGS                           */
          5 SMF73TYP BIT(4),      /* 0000 SELECTOR CHANNEL
                                     0001 BYTE MULTIPLEXOR CHANNEL
                                     0010 BLOCK MULTIPLEXOR CHANNEL  */
          5 * BIT(1),             /* RESV                            */
          5 SMF73IID BIT(1),      /* INVALID CHANNEL ID              */
          5 SMF73VAC BIT(1),      /* DATA INVALID, VARIED ON OR OFF  */
          5 SMF73STA BIT(1),      /* =1 FOR ONLINE AT END OF INTERVAL*/
         3 SMF73CNT FIXED(32),    /* # SUCCESSFUL SIO ISSUED TO CHAN */
         3 SMF73BSY FIXED(32),    /* # SAMPLES IN BURST MODE
                                     0 FOR BYTE MULTIPLEX CHANNEL    */
         3 SMF73OLP FIXED(32);    /* # SAMPLES HAVING CHANNEL@YL02120
                                     BUSY AND CPU WAIT.
                                     0 FOR BYTE MULTIPLEX CHANNEL    */
 %IFALR8: ;
