*        %GOTO IFAL27;   /*
         MACRO
&NAME    IFASMFR3 &RECTYPE
.* *                                                                  *
.* * MACMEAN IFASMFR3 MEANS SYSTEM MANAGEMENT FACILITY RECORD MAPPING *
.* * MACCOMP Y-2 SC102/BL27P                                          *
.* * MACSTAT Y-2 73298/42020                                          *
.* * METHOD OF ACCESS                                                 *
.* *   PL/S - INCLUDE MACRO FROM LIBRARY                              *
.* *           EXAMPLE - %INCLUDE SYSLIB(IFASMFR3)                    *
.* *                                                                  *
.* *          THIS MACRO EXPANDS RECORDS 28-36.                       *
.* *                                                                  *
.* *
.* THIS IS AN SMF MACRO WHICH BUILDS SMF RECORDS 28 - 36. THE REQUIRED
.* FORMAT IS -
.*
.*       IFASMFR3 &RECTYPE
.**********************************************************************
         AIF   (&RECTYPE EQ 31).IFAS031
         AIF   (&RECTYPE EQ 34).IFAS034
         AIF   (&RECTYPE EQ 35).IFAS035
.E5      ANOP
         SPACE 3
         MNOTE 4,'&RECTYPE INVALID RECORD TYPE SPECIFIED'
.CONTB   ANOP
         MEXIT
.IFAS031 ANOP
         EJECT
* WRITTEN EACH TIME A MODIFY TCAM COMMAND IS PROCESSED WITH TS=START.
* LENGTH IS 54 BYTES.
         DS    0F        ALIGN TO FULL WORD BOUNDARY
TTISMF   EQU   *         TIOC RECORD
TTIRLEN  DS    BL2'0'    RECORD LENGTH
TTIRSEG  DS    BL2'0'    SEGMENT DESCRIPTOR
TTIRFLG  DC    BL1'0'    HEADER FLAG BYTE
TTIRCDTY DC    BL1'0'    RECORD TYPE (31 DECIMAL)
TTIRCDTS DC    BL4'0'    TIME STAMP  TOD  100THS SECS
TTIRCDTE DC    PL4'0000' DATE, PACK/DEC: 00YYDDDF
TTICPUID DC    CL4' '    CPU IDENTIFICATION (SYSTEM, MODEL)
TTINBF   DC    BL2'0'    TOTAL NUMBER OF BUFFER
TTIBUFSE DC    BL2'0'    BUFFER SIZE IN BYTES
TTIRSVRD DC    BL2'0'    RESERVED
TTIOMAX  DC    BL2'0'    MAXIMUM NUMBER OF OUTPUT BUFFERS ALLOWED EACH
*                        TERMINAL BEFORE OWAIT
TTIIMAX  DC    BL2'0'    MAXIMUM NUMBER OF INPUT BUFFERS ALLOWED EACH
*                        TERMINAL BEFORE LWAIT
TTIOWTH  DC    BL2'0'    OWAIT THRESHOLD- THE NUMBER OF BUFFERS THAT
*                        MUST BE FREED IN ORDER TO ESCAPE FROM OWAIT
TTIRSTH  DC    BL2'0'    RESTART THRESHOLD- THE NUMBER OF BUFFERS THAT
*                        MUST BE FREED IN ORDER TO ESCAPE FROM LWAIT
TTIUSLW  DC    BL2'0'    NUMBER OF BUFFERS RESERVED ON THE FREE QUEUE.
*                        LESS THAN THIS NUMBER RESULTS IN SYSTEM LWAIT.
TTIUSSL  DC    BL2'0'    RESV                                    Y02133
TTITSBS  DC    BL1'0'    SIZ OF TSB'S IN SYSTEM
TTIUSCH  DC    BL1'0'    RESV                                    Y02133
TTIRVA   DC    BL20'0'   RESERVED
         AGO   .CONTB
.IFAS034 ANOP
         EJECT
* WRITTEN AT TASK TERMINATION FOR BKGD JOB.
* LENGTH IS VARIABLE. MINIMUM OF 137 BYTES.
*
         DS    0F        ALIGN TO FULL WORD BOUNDARY
TIVSMF   EQU   *                   SMF TS STEP TERMINATION RECORD
TIVRLEN  DS    BL2'0'    RECORD LENGTH
TIVRSEG  DS    BL2'0'    SEGMENT DESCRIPTOR
TIVRFLG  DC    BL1'0'              HEADER FLAG BYTE
TIVRCDTY DC    BL1'0'              RECORD TYPE (34 DECIMAL)
TIVRCDTS DC    BL4'0'              TIME STAMP  TOD .01 SECS
TIVRCDTE DC    PL4'0000'                       DATE 00YYDDDF
TIVCPUID DC    CL4' '              CPU IDENTIFICATION (SYSTEM, MODEL)
TIVUIF   DC    CL8' '              USER IDENTIFICATION FIELD     Y02901
TIVUID   EQU   TIVUIF
TIVONTME DC    BL4'0'              LOGON TIME  TOD .01 SECS
TIVONDTE DC    PL4'0000'                       DATE 00YYDDDF
TIVUDATA DC    CL8' '              RESV FOR USER
TIVINVSQ DC    BL1'0'              STEP SEQUENCE NUMBER
TIVSIT   DC    BL4'0'              TOD STEP INITIATION         @YL026WA
TIVCRTME EQU   TIVSIT              WAS MAIN STOR OCCUPANCY TIME@YL026WA
TIVOUTCT DC    BL4'0'              LINE OUT COUNT
TIVINCT  DC    BL4'0'              LINE IN COUNT
TIVSTAT  DC    BL2'0'              STEP TERMINATION STATUS
TIVPRI   DC    BL1'0'              STEP DISPATCHING PRIORITY
TIVPRGNM DC    CL8' '              NAME OF PROGRAM INVOKED
TIVINVNM DC    CL8' '              STEP (PROC) NAME
TIVEFRGN DC    BL2'0'              EFFECTIVE REGION SIZE IN 1K BLKS
TIVPRV   EQU   TIVEFRGN            REG SIZE REQ(PRI AREA 1K)     Y02901
TIVSYST  DC    BL2'0'              SYST AREA USED, TOP PRI AREA  Y02901
TIVRVB   EQU   TIVSYST                                           Y02901
TIVMCRE  DC    BL2'0'              CORE ACTUALLY USED IN  1K BLKS
TIVSTU   EQU   TIVMCRE             STORAGE USED, LOW PRI AREA    Y02901
TIVRVC   DC    BL6'0'              RESERVED
TIVSPK   DC    BL1'0'              STORAGE PROTECT KEY           A40791
TIVSTI   DC    BL1'0'              STEP TERMINATION INDICATORS
*                        BIT0 - RESERVED
*                        BIT1 - CANCELLED AT EXIT IEFUJV
*                        BIT2 - CANCELLED AT EXIT IEFUJI
*                        BIT3 - CANCELLED AT EXIT IEFUSI
*                        BIT4 - CANCELLED AT EXIT IEFACTRT
*                        BIT5 - STEP IS TO BE RESTARTED        @YL026WA
*                        BIT6 - 0=NORMAL COMPLETION
*                               1=ABEND
*                        BIT7 - STEP FLUSHED
TIVRV1   DC    BL2'0'              RESERVED                      A40791
TIVAST   DC    BL4'0'              ALLOC. START TIME             A40791
TIVPPST  DC    BL4'0'              PROBLEM PROG. START TIME      A40791
TIVRV2   DC    BL1'0'              RESERVED                    @YL026WA
TIVSRBT  DC    BL3'0'              STEP CPU UNDER SRB(.01 SEC) @YL026WA
TIVRIN   DC    BL2'0'              RECORD INDICATORS
*                                  BIT0-5 RESERVED             @YM02618
*                                  6 =1 POSSIBLE ERROR IN      @YM02618
*                                    DEVICE ENTRY DATA         @YM02618
*                                  7 =0 STOR IS VIRT, =1 STOR IS REAL
*                                  8-15 RESERVED               @YM02618
TIVRLCT  DC    BL2'0'              OFFSET TO RELOCATE SECTION
TIVVAR   DC    BL2'0'              LENGTH OF EXCP COUNT FIELDS
*                                  (INCLUDING THESE TWO BYTES)
TIVEXCP  EQU   *                   DEVICES USED AND EXCP COUNTS
*
*                                  EACH ENTRY
*
TIVDEVC  DC    BL1'0'              DEVICE CLASS
TIVUTYP  DC    BL1'0'              UNIT TYPE
TIVCUAD  DC    BL2'00'             CHANNEL/UNIT ADDRESS
TIVVDV   EQU   X'80'               VIRTUAL INDICATOR           @Y30AQPF
TIVNEXCP DC    BL4'0'              EXCP COUNT
*
         ORG   TIVEXCP
TIVVARA  DC    BL1'0'              LENGTH OF CPU AND ACCT. SECTION
*                                  (NOT INCLUDING THIS BYTE)
TIVCPUTM DC    BL3'0'              STEP CPU UNDER TCB(.01 SEC) @YL026WA
TIVNBRAC DC    BL1'0'              NUMBER OF ACCOUNTING FIELDS
TIVACFLD EQU   *                   ACCOUNTING FIELDS
*                                  (THE FIRST BYTE OF EACH FIELD
*                                  MUST CONTAIN THE NUMBER OF
*                                  BYTES OF DATA THAT FOLLOWS)
*
*        RELOCATE SECTION
TIVPGIN  DC    BL4'0'    NUMBER OF PAGE-INS
TIVPGOUT DC    BL4'0'    NUMBER OF PAGE-OUTS
TIVPGOT  EQU   TIVPGOUT                                          Y02901
TIVRGNS  DC    BL4'0'    NUMBER OF SWAPS
TIVNSW   EQU   TIVRGNS                                           Y02901
TIVSIN   DC    BL4'0'    NUMBER OF TSO SWAP PAGE-INS
TIVPSI   EQU   TIVSIN                                            Y02901
TIVSOUT  DC    BL4'0'    NUMBER OF TSO SWAP PAGE-OUTS
TIVPSO   EQU   TIVSOUT                                           Y02901
TIVVPI   DS    BL4       VIO PAGE INS                            Y02132
TIVVPO   DS    BL4       VIO PAGE OUTS                           Y02132
TIVSST   DS    BL4'0'                  STEP SERVICE TIME       @YM07459
TIVACT   DS    BL4'0'                  STEP ACTIVE TIME        @YM07459
TIVPGNO  DS    BL2'0'                  PERFORMANCE NUMBER      @YM07459
TIVTRANT DS    BL4'0'      STEP TRANSACTION RESIDENCY TIME     @Z40FPPF
TIVRECLM DS    BL4'0'      NUMBER OF RECLAIMS                  @Z40FPPF
TIVRCLAM DS    BL4'0'      NUMBER OF VIO RECLAIMS              @Z40FPPF
TIVCPGIN DS    BL4'0'      NUMBER OF COMMON PAGE-INS           @Z40FPPF
TIVCRECL DS    BL4'0'       NUMBER OF COMMON RECLAIMS          @Z40FPPF
TIVPGSTL DS    BL4'0'       NUMBER OF PAGES STOLEN FROM THIS MEMORY
*                                                              @Z40FPPF
TIVPGSEC DS    CL8         COUNT OF PAGE SECONDS (UNIT IS 1 PAGE
*                          MILLISECOND)                        @Z40FPPF
         AGO   .CONTB
.IFAS035 ANOP
         EJECT
* WRITTEN AT LOGOFF FOR BKGD JOB. LENGTH IS VARIABLE. MINIMUM OF 117.
*
         DS    0F        ALIGN TO FULL WORD BOUNDARY
TLGSMF   EQU   *                   SMF TS LOGOFF RECORD FORMAT
TLGRLEN  DS    BL2'0'    RECORD LENGTH
TLGRSEG  DS    BL2'0'    SEGMENT DESCRIPTOR
TLGRFLG  DC    BL1'0'              HEADER FLAG BYTE
TLGRCDTY DC    BL1'0'              RECORD TYPE (35 DECIMAL)
TLGRCDTS DC    BL4'0'              TIME STAMP   TOD  100THS SECS
TLGRCDTE DC    PL4'0000'                       DATE 00YYDDDF
TLGCPUID DC    CL4' '              CPU IDENTIFICATION (SYSTEM, MODEL)
TLGUIF   DC    CL8' '              USER IDENTIFICATION FIELD     Y02901
TLGUID   EQU   TLGUIF
TLGONTME DC    BL4'0'              LOGON TIME  TOD 100THS SECS
TLGONDTE DC    PL4'0000'                       DATE 00YYDDDF
TLGUDATA DC    CL8' '              RESV FOR USER
TLGSTPCT DC    BL1'0'              NUMBER OF STEPS IN SESSION
TLGCRTME DC    BL4'0'              RESERVED
TLGOUTCT DC    BL4'0'              LINE OUT COUNT
TLGINCT  DC    BL4'0'              LINE IN COUNT
TLGSTAT  DC    BL2'0'              SESSION TERMINATION STATUS
TLGPRI   DC    BL1'0'              LOGON PRIORITY
TLGNQTME DC    BL4'0'              LOGON ENQUEUE TIME  TOD .01 SECS
TLGNQDTE DC    PL4'0000'           LOGON ENQUEUE DATE 00YYDDDF
TLGTRMI  DC    BL1'0'              TERMINATION INDICATORS
*                                  BIT0-RESERVED
*                                     1-CANCELLED AT EXIT IEFUJV
*                                     2-CANCELLED AT EXIT IEFUJI
*                                     3-CANCELLED AT EXIT IEFUSI
*                                     4-CANCELLED AT EXIT IEFACTRT
*                                     5-RESERVED
*                                     6-O=NORMAL COMPLETION
*                                       1=ABEND
*                                     7-RESERVED
TLGOUTCL DC    BL1'0'              RESV-FORMERLY SYSOUT CLASSES  Y02120
TLGTRANT DS    BL4                 TOTAL TRANSACTION RESIDENCY
*                                  TIME                        @ZM01380
TLGRVC   DC    BL4'0'              RESERVED
TLGSPK   DC    BL1'0'              STORAGE PROTECT KEY           A40791
TLGSRBT  DC    BL3'0'              JOB CPU UNDER SRB(.01 SEC)  @YL026WA
TLGTJS   DS    BL4                 TOTAL SESSION SERV(SERV UNITS)Y02133
TLGTTAT  DS    BL4                 TOTAL ACTIVE TIME FOR SESSION Y02133
TLGNTSN  DS    BL4                 TOTAL # OF TRANSACTIONS       Y02133
TLGPGNO  DS    BL2                 PERFORMANCE GROUP #         @YL026WA
TLGRV2   DS    BL2                 RESERVED                    @YL026WA
TLGVAR   DC    BL1'0'              LENGTH OF REST OF RECORD
*                                  (NOT INCLUDING THIS BYTE)
TLGRVB   DC    CL20' '             RESERVED
TLGCPUTM DC    BL3'0'              JOB CPU UNDER TCB(.01 SEC)  @YL026WA
TLGNBRAC DC    BL1'0'              NUMBER OF ACCOUNTING FIELDS
TLGACFLD EQU   *                   ACCOUNTING FIELDS
*                                  (THE FIRST BYTE OF EACH FIELD
*                                  MUST CONTAIN THE NUMBER OF
*                                  BYTES OF DATA THAT FOLLOWS)
         AGO   .CONTB
         MEND             */
 %IFAL27:;
 %IFAL31: IF IFAR31='' %THEN %GOTO IFAL32;
    DCL 1 SMFRCD31 BASED(SMF31PTR) BDY(WORD),
 /* RECORD TYPE 31 - TIOC INITIALIZATION                             */
 /* WRITTEN WHENEVER A MODIFY TCAM COMMAND IS PROCESSED WITH TS=START*/
         3 TTIRLEN FIXED(15),     /* RDW RECORD LENGTH               */
         3 TTIRSEG FIXED(15),     /* RDW SEGMENT DESCRIPTOR          */
         3 TTIRFLG BIT(8),        /* OPERATING ENVIRONMENT           */
         3 TTIRCDTY FIXED(8),     /* RECORD TYPE 31                  */
         3 TTIRCDTS FIXED(31) BDY(BYTE), /* TOD RECORD WRITTEN       */
         3 TTIRCDTE CHAR(4),      /* DATE RECORD WRITTEN             */
         3 TTICPUID CHAR(4),      /* SYSTEM ID FROM INSTALLATION     */
         3 TTINBF FIXED(15),      /* TOTAL # OF BUFFERS              */
         3 TTIBUFSE FIXED(15),    /* BUFFER SIZE(BYTES)              */
         3 TTIRSVRD CHAR(2),      /* RESV                            */
         3 TTIOMAX FIXED(15),     /* MAX # OUTPUT BUFFERS ALLOWED
                                     EACH TERMINAL BEFORE OWAIT      */
         3 TTIIMAX FIXED(15),     /* MAX # INPUT BUFFERS ALLOWED
                                     EACH TERMINAL BEFORE LWAIT      */
         3 TTIOWTH FIXED(15),     /* OWAIT THRESHOLD-# BUF THAT MUST
                                     BE FREE IN ORDER TO ESCAPE OWAIT*/
         3 TTIRSTH FIXED(15),     /* RESTART THRESHOLD-# BUF THAT MUST
                                     BE FREE IN ORDER TO ESCAPE LWAIT*/
         3 TTIUSLW FIXED(15),     /* # BUF RESV ON FREE QUEUE.
                                     < THIS # RESULTS IN SYSTEM LWAIT*/
         3 TTIUSSL FIXED(15),     /* RESV                            */
         3 TTITSBS FIXED(8),      /* SIZE OF TSB'S                   */
         3 TTIUSCH FIXED(8),      /* RESV                            */
         3 TTIRVA CHAR(20);       /* RESV                            */
 %IFAL32: ;
 %IFAL34: IF IFAR34='' %THEN %GOTO IFAL35;
    DCL 1 SMFRCD34 BASED(SMF34PTR) BDY(WORD),
 /* RECORD TYPE 34 - FOREGROUND STEP TERMINATION                     */
 /* WRITTEN WHENEVER A FGD TASK TERMINATES                           */
         3 TIVRLEN FIXED(15),     /* RDW RECORD LENGTH               */
         3 TIVRSEG FIXED(15),     /* RDW SEGMENT DESCRIPTOR          */
         3 TIVRFLG BIT(8),        /* OPERATING ENVIRONMENT           */
         3 TIVRCDTY FIXED(8),     /* RECORD TYPE 34                  */
         3 TIVRCDTS FIXED(31) BDY(BYTE), /* TOD RECORD WRITTEN       */
         3 TIVRCDTE CHAR(4),      /* DATE RECORD WRITTEN             */
         3 TIVCPUID CHAR(4),      /* SYSTEM ID FROM INSTALLATION     */
         3 TIVUIF CHAR(8),        /* USER ID FIELD                   */
          5 TIVUID CHAR(8),
         3 TIVONTME FIXED(31) BDY(BYTE), /* TOD LOGON(.01 SEC)       */
         3 TIVONDTE CHAR(4),      /* LOGON DATE                      */
         3 TIVUDATA CHAR(8),      /* RESV FOR USER                   */
         3 TIVINVSQ FIXED(8),     /* STEP SEQUENCE #                 */
         3 TIVSIT FIXED(31) BDY(BYTE), /* TOD STEP INITIATED @YL026WA*/
           5 TIVCRTME FIXED(31) BDY(BYTE), /* WAS STOR OCCUPANCY TIME*/
         3 TIVOUTCT FIXED(31) BDY(BYTE), /* LINE-OUT COUNT           */
         3 TIVINCT  FIXED(31) BDY(BYTE), /* LINE-IN COUNT            */
         3 TIVSTAT CHAR(2),       /* STEP TERMINATION STATUS         */
         3 TIVPRI FIXED(8),       /* STEP DISPATCH PRIORITY          */
         3 TIVPRGNM CHAR(8),      /* TERMINAL MONITOR PGM NAME       */
         3 TIVINVNM CHAR(8),      /* STEP NAME(PROCEDURE)            */
         3 TIVPRV FIXED(15),      /* REG SIZE REQ(PRI AREA-1K)       */
          5 TIVEFRGN FIXED(15),   /* EFFECTIVE REGION SIZE           */
         3 TIVSYST FIXED(15),     /* SYST AREA USED, TOP PRI AREA    */
          5 TIVRVB FIXED(15),     /* RESV                            */
         3 TIVSTU FIXED(15),      /* STORAGE USED, LOW PRI AREA(1K)  */
          5 TIVMCRE FIXED(15),    /* CORE USED IN 1K BLOCKS          */
         3 TIVRVC CHAR(6),        /* RESV                            */
         3 TIVSPK FIXED(8),       /* STORAGE PROTECT KEY             */
         3 TIVSTI BIT(8),         /* STEP TERMINATION INDICATOR
                                     0-RESV
                                     1-CANCELLED AT EXIT IEFUJV
                                     2-CANCELLED AT EXIT IEFUJI
                                     3-CANCELLED AT EXIT IEFUSI
                                     4-CANCELLED AT EXIT IEFACTRT
                                     5-STEP TO BE RESTARTED  @YL026WA
                                     6-ABEND
                                     7-STEP FLUSHED                  */
         3 TIVRV1 CHAR(2),        /* RESV                            */
         3 TIVAST FIXED(31) BDY(BYTE), /* DEVICE ALLOC START TIME    */
         3 TIVPPST FIXED(31) BDY(BYTE), /* PROB PROG START TIME      */
         3 TIVRV2 CHAR(1),        /* RESV                    @YL026WA*/
         3 TIVSRBT PTR(24) BDY(BYTE), /* STEP CPU UNDER SRB  @YL026WA*/
         3 TIVRIN BIT(16),        /* RECORD INDICATORS       @YM02618*/
          5 * BIT(6),             /* 0-5 RESV                @YM02618*/
          5 TIVIEX BIT(1),        /* POSSIBLE ERROR IN DEV ENTRY     */
          5 * BIT(9),             /* 7 =0 VIRT, =1 REAL STORAGE
                                     8-15 RESV                       */
         3 TIVRLCT FIXED(15),     /* OFFSET TO RELOCATE SECTION      */
         3 TIVVAR FIXED(15);      /* LGTH OF EXCP SECTION + THESE 2  */
    DCL 1 TIVEXCP BASED BDY(WORD), /* EXCP SECTION, ENTRY FOR EACH
                                      DEVICE OF EACH NON-SPOOLED DS  */
         3 TIVCUT CHAR(2),        /* DEVICE CLASS AND UNIT TYPE      */
          5 TIVDEVC CHAR(1),      /* DEVICE CLASS                    */
          5 TIVUTYP CHAR(1),      /* UNIT TYPE                       */
         3 TIVCUAD CHAR(2),       /* CHANNEL AND UNIT ADDRESS        */
          4 TIVVDV BIT(1),        /* VIRTUAL DEVICE          @Y30AQPF*/
         3 TIVNEXCP FIXED(31);    /* EXCP COUNT FOR DEVICE OF DS     */
    DCL 1 TIVCPUA BASED BDY(WORD), /* CPU AND ACCT HDR SECTION       */
         3 TIVVARA FIXED(8),      /* LGTH OF CPU AND ACCT SECTION    */
         3 TIVCPUTM PTR(24),      /*STEP CPU UNDER TCB(.01 S)@YL026WA*/
         3 TIVNBRAC PTR(8);       /* NUM OF ACCT FIELDS IN ACCT SECT */
    DCL 1 TIVACFLD BASED BDY(BYTE), /* ACCT SECTION                  */
         3 TIVANC PTR(8),         /* # CHAR IN THIS ACCT FIELD       */
         3 TIVBCD CHAR(*);        /* ACCT FIELD CHARACTERS           */
    DCL 1 TIVRELS BASED BDY(BYTE), /* RELOCATE SECTION               */
         3 TIVPGIN FIXED(31) BDY(BYTE), /* # OF PAGE-INS             */
         3 TIVPGOT FIXED(31) BDY(BYTE), /* # OF PAGE-OUTS            */
          5 TIVPGOUT FIXED(31) BDY(BYTE),
         3 TIVNSW  FIXED(31) BDY(BYTE), /* # OF SWAPS                */
          5 TIVRGNS  FIXED(31) BDY(BYTE),
         3 TIVPSI  FIXED(31) BDY(BYTE), /* # OF PAGES SWAPPED IN     */
          5 TIVSIN   FIXED(31) BDY(BYTE),
         3 TIVPSO  FIXED(31) BDY(BYTE), /* # OF PAGES SWAPPED OUT    */
          5 TIVSOUT  FIXED(31) BDY(BYTE),
         3 TIVVPI  FIXED(31) BDY(BYTE), /* # OF VIO PAGE-INS         */
         3 TIVVPO  FIXED(31) BDY(BYTE), /* # OF VIO PAGE-OUTS        */
         3 TIVSST FIXED(31) BDY(BYTE),  /* STEP SERVICE TIME @Z40FPPF*/
         3 TIVTAT FIXED(31) BDY(BYTE),  /* STEP TRANSACTION ACTIVE
                                          TIME               @Z40FPPF*/
         3 TIVPGNO FIXED(16),          /* PERFORMANCE GROUP NUMBER
                                                             @Z40FPPF*/
         3 TIVTRANT FIXED(31) BDY(BYTE), /* STEP TRANSACTION RESIDENCY
                                            TIME             @Z40FPPF*/
         3 TIVRECLM FIXED(31) BDY(BYTE), /* NUMBER OF RECLAIMS
                                                             @Z40FPPF*/
         3 TIVRCLAM FIXED(31) BDY(BYTE), /* NUMBER OF VIO RECLAIMS
                                                             @Z40FPPF*/
         3 TIVCPGIN FIXED(31) BDY(BYTE), /* NUMBER OF COMMON PAGE-INS
                                                             @Z40FPPF*/
         3 TIVCRECL FIXED(31) BDY(BYTE), /* NUMBER OF COMMON RECLAIMS
                                                             @Z40FPPF*/
         3 TIVPGSTL FIXED(31) BDY(BYTE), /* NUMBER OF PAGES STOLEN FROM
                                            THIS MEMORY      @Z40FPPF*/
         3 TIVPGSEC CHAR(8);             /* COUNT OF PAGE SECONDS (UNIT
                                            IS 1 PAGE MILLISECOND
                                                             @Z40FPPF*/
 %IFAL35: IF IFAR35='' %THEN %GOTO IFAL36;
    DCL 1 SMFRCD35 BASED(SMF35PTR) BDY(WORD),
 /* RECORD TYPE 35 - LOGOFF                                          */
 /* WRITTEN WHENEVER A TSO USER LOGS OFF                             */
         3 TLGRLEN FIXED(15),     /* RDW RECORD LENGTH               */
         3 TLGRSEG FIXED(15),     /* RDW SEGMENT DESCRIPTOR          */
         3 TLGRFLG BIT(8),        /* OPERATING ENVIRONMENT           */
         3 TLGRCDTY FIXED(8),     /* RECORD TYPE 35                  */
         3 TLGRCDTS FIXED(31) BDY(BYTE), /* TOD RECORD WRITTEN       */
         3 TLGRCDTE CHAR(4),      /* DATE RECORD WRITTEN             */
         3 TLGCPUID CHAR(4),      /* SYSTEM ID FROM INSTALLATION     */
         3 TLGUIF CHAR(8),        /* USER ID FIELD                   */
          5 TLGUID CHAR(8),
         3 TLGONTME FIXED(31) BDY(BYTE), /* TOD LOGOF(.01 SEC)       */
         3 TLGONDTE CHAR(4),      /* LOGON DATE                      */
         3 TLGUDATA CHAR(8),      /* RESV FOR USER                   */
         3 TLGSTPCT FIXED(8),     /* # OF STEPS IN SESSION           */
         3 TLGCRTME CHAR(4),      /* RESV                            */
         3 TLGOUTCT FIXED(31) BDY(BYTE), /* LINE-OUT COUNT           */
         3 TLGINCT FIXED(31) BDY(BYTE), /* LINE-IN COUNT             */
         3 TLGSTAT CHAR(2),       /* SESSION TERMINATION STATUS      */
         3 TLGPRI FIXED(8),       /* LOGON PRIORITY                  */
         3 TLGNQTME FIXED(31) BDY(BYTE), /* TOD LOGON ENQUEUE        */
         3 TLGNQDTE CHAR(4),      /* DATE LOGON ENQUEUE              */
         3 TLGTRMI BIT(8),        /* TERMINATION INDICATORS
                                     0-RESV
                                     1-CANCELLED AT EXIT IEFUJV
                                     2-CANCELLED AT EXIT IEFUJI
                                     3-CANCELLED AT EXIT IEFUSI
                                     4-CANCELLED AT EXIT IEFACTRT
                                     5-RESV
                                     6-ABEND
                                     7-RESV                          */
         3 TLGOUTCL CHAR(1),      /* RESV-FORMERLY SYSOUT CLASSES    */
         3 TLGTRANT FIXED(31) BDY(BYTE), /* TOTAL TRANSACTION
                                            RESIDENCY TIME   @ZM01380*/
         3 TLGRVC CHAR(4),        /* RESV                            */
         3 TLGSPK FIXED(8),       /* STORAGE PROTECT KEY             */
         3 TLGSRBT PTR(24),       /* JOB CPU UNDER SRB(.01 S)@YL026WA*/
         3 TLGTJS FIXED(31) BDY(BYTE), /* TOT SESS SERV(SERV UNITS)  */
         3 TLGTTAT FIXED(31) BDY(BYTE), /* TOTAL SESSION ACTIVE TIME */
         3 TLGNTSN FIXED(31) BDY(BYTE), /* TOTAL # OF TRANSACTIONS   */
         3 TLGPGNO FIXED(16) BDY(BYTE), /*PERFORMANCE GROUP# @YL026WA*/
         3 TLGRV2 CHAR(2),              /* RESERVED          @YL026WA*/
         3 TLGVAR FIXED(8),       /* LENGTH OF REST OF RECORD        */
         3 TLGRVB CHAR(20),       /* RESV                            */
         3 TLGCPUTM FIXED(24) BDY(BYTE), /*JOB CPU TCB(.01 S)@YL026WA*/
         3 TLGNBRAC FIXED(8);     /* # OF ACCT FIELDS IN ACCT SECTION*/
    DCL 1 TLGACFLD BASED BDY(BYTE), /* ACCT SECTION                  */
         3 TLGANC PTR(8),         /* # CHAR IN THIS ACCT FIELD       */
         3 TLGBCD CHAR(*);        /* ACCT FIELD CHARACTERS           */
 %IFAL36: ;
