*        %GOTO IFAL20;   /*
         MACRO
&NAME    IFASMFR2 &RECTYPE
.* *                                                                  *
.* * MACMEAN IFASMFR2 MEANS SYSTEM MANAGEMENT FACILITY RECORD MAPPING *
.* * MACCOMP Y-2 SC102/BL27P                                          *
.* * MACSTAT Y-2 73298/42020                                          *
.* * METHOD OF ACCESS                                                 *
.* *   PL/S - INCLUDE MACRO FROM LIBRARY                              *
.* *           EXAMPLE - %INCLUDE SYSLIB(IFASMFR2)                    *
.* *                                                                  *
.* *          THIS MACRO EXPANDS RECORDS 20 -27.                      *
.* *                                                                  *
.* *
.* THIS IS AN SMF MACRO WHICH BUILDS SMF RECORDS 20-27. THE REQUIRED
.* FORMAT IS -
.*
.*          IFASMFR2 &RECTYPE
.*
.*
.* TYPE 26 RECORD - REMOVE ORG STMTS APPROX 147550,156550      @ZA12438
.* TYPE 26 RECORD - ADD ORG STMTS TO EVENTS,ACTUALS SECTIONS   @ZA17757
.**********************************************************************
         AIF   (&RECTYPE EQ 20).IFAS020
         AIF   (&RECTYPE EQ 21).IFAS021
         AIF   (&RECTYPE EQ 22).IFAS022                         Y02034
         AIF   (&RECTYPE EQ 25).IFAS025                       @Y02BPSE
         AIF   (&RECTYPE EQ 26).IFAS026                         Y02120
.E5      ANOP
         SPACE 3
         MNOTE 4,'&RECTYPE INVALID RECORD TYPE SPECIFIED'
.CONTB   ANOP
         MEXIT
.IFAS020 ANOP
         EJECT
* JOB COMMENCEMENT RECORD WRITTEN WHEN A JOB IS INITIATED.
* LENGTH IS VARIABLE. MINIMUM OF 61 BYTES.
*
         DS    0F        ALIGN TO FULL WORD BOUNDARY
SMFRCD20 EQU   *         RECORD 20
SMF20LEN DS    BL2'0'    RECORD LENGTH
SMF20SEG DS    BL2'0'    SEGMENT DESCRIPTOR
SMF20HDR EQU   *         HEADER SEGMENT
SMF20FLG DS    BL1'0'    HEADER FLAG BYTE
SMF20RTY DS    BL1'0'    RECORD TYPE 20
SMF20TME DS    BL4'0'    TOD, USING TIME MACRO W/BIN. INTVL.
SMF20DTE DS    PL4'0000' DATE, PACKED/DEC FORM; 00YYDDDF
SMF20SID DS    CL4' '    SYSTEM ID                               Y02901
SMF20JBN DS    CL8' '    JOB NAME
SMF20RST DS    BL4'0'    READER START TIME
SMF20RSD DS    PL4'0000' READER START DATE, PK/DEC FORM: 00YYDDDF
SMF20UID DS    CL8' '    USERID
SMF20RIN DS    BL2'0'                                          @G32FPRS
         ORG   SMF20RIN                                        @G32FPRL
SMF20RLO DS    BL2'0'    OFFSET TO RELOCATE SECTION            @G32FPRL
SMF20PGM DS    CL20' '   PROGRAMMERS NAME
SMF20NAF DS    BL1'0'    NO. ACCOUNTING FIELDS
SMF20ACT EQU   *         ACCOUNTING FIELDS
* BEGINNING OF RELOCATE SECTION
* SMF20RLO IS ITS OFFSET FROM BEGINNING OF HEADER - SMF20HDR   @G32FPRL
SMF20RLA EQU   *         RELOCATABLE AREA                      @G32FPRL
SMF20RLS DS    BL2       SIZE OF RELOCATABLE AREA              @G32FPRL
SMF20GRP DS    CL8' '    RACF GROUP ID                         @G32FPRS
SMF20RUD DS    CL8' '    RACF USER ID                          @G32FPRS
SMF20TID DS    CL8' '    RACF TERMINAL ID                      @G32FPRS
         AGO   .CONTB
.IFAS021 ANOP
         EJECT
* THIS RECORD IS WRITTEN BY THE ERROR STATISTICS BY VOLUME OPTION
* WHENEVER A TAPE VOLUME IS DEMOUNTED.
* LENGTH IS 44 BYTES.
         DS    0F        ALIGN TO FULL WORD BOUNDRY
SMF21HDR EQU   *         HEADER SEGMENT FOR RECORD 21 (ESV)
SMF21LEN DS    BL2'0'    RECORD LENGTH
SMF21SEG DS    BL2'0'    SEGMENT DESCRIPTOR
SMF21FLG DS    BL1'0'    HEADER FLAG BYTE
SMF21RTY DS    BL1'0'    RECORD TYPE 21
SMF21TME DS    BL4'0'    TOD, USING TIME MACRO W/BIN. INTVL.
SMF21DTE DS    PL4'0000' DATE, PACKED/DEC FORM: 00YYDDDF
SMF21SID DS    CL4' '    SYSTEM ID                               Y02901
SMF21LGH DS    BL2'0'    LENGTH OF DATA PORTION
SMF21VOL DS    CL6' '    VOL SERIAL
SMF21CA  DS    BL2'0'    CHANNEL ADDRESS
SMF21UCB DS    BL4'0'    UCB TYPE CODE
SMF21TR  DS    BL1'0'    TEMPERARY READ ERRORS
SMF21TW  DS    BL1'0'    TEMPERARY WRITE ERRORS
SMF21SIO DS    BL2'0'    NO OF START I/O
SMF21PR  DS    BL1'0'    PERMANEMT READ ERRORS
SMF21PW  DS    BL1'0'    PERMANENT WRITE ERRORS
SMF21NB  DS    BL1'0'    NOISE BLOCKS
SMF21ERG DS    BL2'0'    ERASE GAPS
SMF21CLN DS    BL2'0'    CLEANER ACTIONS
SMF21DEN DS    BL1'0'    TAPE DENSITY
SMF21BLS DS    BL2'0'    BLOCK SIZE
SMF21RV0 DS    BL2'0'    RESERVED
         AGO   .CONTB
.IFAS022 ANOP                                                    Y02034
         EJECT                                                   Y02034
*  THIS RECORD IS WRITTEN AFTER EVERY IPL AND EACH TIME A VARY   Y02034
*  COMMAND IS PROCESSED FOR A CPU, CHANNEL OR STORAGE BOX.       Y02034
*  LENGTH IS VARIABLE. MINIMUM OF 24.                            Y02034
*                                                                Y02034
         DS    0F                  ALIGN ON FULLWORD BDY         Y02034
SMFRCD22 EQU   *                   HEADER SEGMENT                Y02034
SMF22LEN DS    BL2                 RECORD LENGTH                 Y02034
SMF22SEG DS    BL2                 SEGMENT DESRIPTOR             Y02034
SMF22FLG DS    BL1                 HEADER FLAG BYTE              Y02034
SMF22RTY DS    BL1                 RECORD TYPE (22)              Y02034
SMF22TME DS    BL4                 TOD FROM TIME MACRO BINARY    Y02034
SMF22DTE DS    PL4                 DATE FROM TIME MACRO          Y02034
SMF22SID DS    CL4                 SYSTEM INDICATOR              Y02034
SMF22IND DS    BL2                 RECORD CREATOR INDICATOR      Y02034
*                                  X'0001' AT IPL                Y02034
*                                  X'0002' BY VARY ON            Y02034
*                                  X'0003' BY VARY OFF           Y02034
SMF22ECT DS    BL2                 # OF ELEMENTS FOLLOWING       Y02034
SMF22RSC EQU   *                   RESOURCE ELEMENTS             Y02034
*                                  CPU ELEMENT                   Y02034
SMF22RV0 DS    BL1                 RESV                          Y02034
SMF22PID DS    BL1                 PROCESSOR ID X'01'            Y02034
SMF22CPN DS    BL2                 CPU MODEL #                   Y02034
SMF22RV1 DS    BL1                 RESV                          Y02034
SMF22CPA DS    BL1                 CPU ADDRESS                   Y02034
         ORG   SMF22RSC                                          Y02034
*                                  CHANNEL ELEMENT               Y02034
SMF22CSD DS    BL1                 CHANNEL SET ID              @G64APJW
SMF22CID DS    BL1                 CHANNEL ID X'02'              Y02034
SMF22CHN DS    BL2                 CHANNEL TYPE AND MODEL #      Y02034
SMF22CHA DS    BL1                 CHANNEL ADDRESS               Y02034
SMF22CPD DS    BL1                 CPU ADDRESS                   Y02034
         ORG   SMF22RSC                                          Y02034
*                                  STORAGE ELEMENT(MEMORY)       Y02034
SMF22RV3 DS    BL1                 RESV                          Y02034
SMF22TID DS    BL1                 STORAGE ID X'03'              Y02034
SMF22PGL DS    BL2                 PAGE # OF LOWEST PAGE IN STOR Y02034
SMF22NPG DS    BL2                 # OF PAGES IN STORAGE         Y02034
         ORG   SMF22RSC                                        @Y30AQPF
*                                  IPL ELEMENT                 @Y30AQPF
SMF22RV4 DS    BL1                 RESV                        @Y30AQPF
SMF22IID DS    BL1                 IPL ID X'04'                @Y30AQPF
SMF22ION DS    BL40                UNITS ONLINE AT IPL         @Y30AQPF
         ORG   SMF22RSC                                        @Y30AQPF
*                                  VARY S ONLINE ELEMENT       @Y30AQPF
SMF22RV5 DS    BL1                 RESV                        @Y30AQPF
SMF22NID DS    BL1                 VARY S ONLINE ID X'05'      @Y30AQPF
SMF22RVA DS    BL1                 RESV                        @Y30AQPF
SMF22NSI DS    BL3                 SUBSYSTEM ID                @Y30AQPF
         ORG   SMF22RSC                                        @Y30AQPF
*                                  VARY S OFFLINE ELEMTNT      @Y30AQPF
SMF22RV6 DS    BL1                 RESV                        @Y30AQPF
SMF22FID DS    BL1                 VARY S OFFLINE ID X'06'     @Y30AQPF
SMF22RVB DS    BL1                 RESV                        @Y30AQPF
SMF22FSI DS    BL3                 SUBSYSTEM ID                @Y30AQPF
         AGO   .CONTB                                            Y02034
.IFAS025 ANOP                                                  @Y02BPSE
         EJECT                                                 @Y02BPSE
* JES3 WILL PRODUCE ONE SMF RECORD 25 FOR EACH JOB TO          @Y02BPSE
* REPRESENT ALL JCL STATIC ALLOCATIONS PLUS SEPARATE           @Y02BPSE
* RECORDS FOR EACH DYNAMIC ALLOCATION REQUEST AND              @Y02BPSE
* SEPARATE RECORDS FOR EACH GROUP OF CATALOG ALLOCATIONS.      @Y02BPSE
         DS    0F        ALIGN TO FULLWORD                     @Y02BPSE
SMFRCD25 EQU   *         HEADER SEGMENT (38 BYTES WITHOUT RDW  @Y02BPSE
SMF25LEN DS    BL2       RECORD LENGTH                         @Y02BPSE
SMF25SEG DS    BL2       SEGMENT DESCRIPTOR                    @Y02BPSE
SMF25FLG DS    BL1       HEADER FLAG BYTE                      @Y02BPSE
SMF25RTY DS    BL1       RECORD TYPE 25                        @Y02BPSE
SMF25TME DS    BL4       TOD OF RECORD (TIME MACRO BINARY)     @Y02BPSE
SMF25DTE DS    PL4       DATE OF RECORD                        @Y02BPSE
SMF25SID DS    CL4       SYSTEM INDICATOR                      @Y02BPSE
SMF25JBN DS    CL8       JOBNAME                               @Y02BPSE
SMF25RST DS    BL4       READER START TIME                     @Y02BPSE
SMF25RSD DS    PL4       READER START DATE                     @Y02BPSE
SMF25UIF DS    CL8       USER IDENTIFICATION FIELD             @Y02BPSE
*
* BEGINNING OF DESCRIPTIVE SECTION
*
SMF25IND DS    BL2       RECORD 25 FUNCTION FLAGS              @Y02BPSE
SMF25DYN EQU    X'8000'  BIT 0 - 1=DYNAMIC ALLOCATIONS         @Y02BPSE
*                                0=JCL,STATIC ALLOCATIONS      @Y02BPSE
SMF25CAT EQU    X'4000'  BIT 1 - 1=NON-EXECUTION ALLOCATIONS   @Y02BPSE
*                                0=EXECUTION ALLOCATIONS       @Y02BPSE
SMF25FCH EQU    X'2000'  BIT 2 - 1=AUTOMATIC ALLOCATIONS       @Y02BPSE
*                                0=MANUAL ALLOCATIONS          @Y02BPSE
SMF25RSV EQU    X'1FFF'  BIT 3 - 15 RESERVED                   @Y02BPSE
SMF25NTF DS    BL4       NUMBER OF TAPES FETCHED               @Y02BPSE
SMF25NDF DS    BL4       NUMBER OF DISK VOLUMES FETCHED        @Y02BPSE
SMF25FST DS    BL4       TOD FETCH START                       @Y02BPSE
SMF25FSD DS    PL4       DATE FETCH START                      @Y02BPSE
SMF25SST DS    BL4       TOD *START SETUP ISSUED               @Y02BPSE
*                        (SETUP START TIME ZERO FOR AUTO FETCH)@Y02BPSE
SMF25SSD DS    PL4       DATE *START SETUP ISSUED              @Y02BPSE
*                        (SETUP START DATE ZERO FOR AUTO FETCH)@Y02BPSE
SMF25NTM DS    BL4       NUMBER OF TAPES MOUNTED               @Y02BPSE
SMF25NDM DS    BL4       NUMBER OF DISK VOLUMES MOUNTED        @Y02BPSE
SMF25MST DS    BL4       TOD FIRST MOUNT MSG ISSUED            @Y02BPSE
SMF25MSD DS    PL4       DATE FIRST MOUNT MSG ISSUED           @Y02BPSE
SMF25VVT DS    BL4       TOD JOB VERIFIED                      @Y02BPSE
SMF25VVD DS    PL4       DATE JOB VERIFIED                     @Y02BPSE
SMF25NMV DS    BL4       NUMBER OF MSS VOLUMES                 @Z40LL00
SMF25END DS    0X        END OF RECORD                         @ZA05171
SMF25SIZ DS    0XL(SMF25END-SMFRCD25)  SIZE OF SMF 25 RECORD   @ZA05171
         AGO   .CONTB
.IFAS026 ANOP                                                    Y02120
         EJECT                                                   Y02120
* THIS RECORD IS WRITTEN WHEN A JOB IS READY TO BE PURGED FOR  @YL02120
* BOTH FOREGROUND AND BACKGROUND JOBS IN THE SYSTEM.           @YL02120
         DS    0F       ALIGN TO FULL WORD BOUNDRY               Y02120
SMFRCD26 EQU   *        HEADER SEGMENT  (LGTH 46 WITHOUT RDW)  @YL02120
SMF26LEN DS    BL2      RECORD LENGTH                            Y02120
SMF26SEG DS    BL2      SEGMENT DESCRIPTOR                       Y02120
SMF26FLG DS    BL1      HEADER FLAG BYTE                         Y02120
SMF26RTY DS    BL1      RECORD TYPE 26                           Y02120
SMF26TME DS    BL4      TOD FROM TIME MACRO BINARY               Y02120
SMF26DTE DS    PL4      DATE FROM TIME MACRO                     Y02120
SMF26SID DS    CL4      SYSTEM INDICATOR                         Y02120
SMF26JBN DS    CL8      JOB NAME                                 Y02120
SMF26RST DS    BL4      RDR START TIME, TIME JOB CARD 1ST READ @YL02120
SMF26RSD DS    PL4      READER START DATE                        Y02120
SMF26UIF DS    CL8      USER IDENTIFICATION FIELD                Y02120
SMF26RSV DS    BL4      RESV                                     Y02120
SMF26SBS DS    BL2      SUBSYSTEM GENERATING ID(JES2=2, JES3=5)@YL02120
SMF26IND DS    BL2      INDICATORS                               Y02120
SMF26DES EQU   X'8000'  DESCRIPTIVE SECTION PRESENT            @ZA05171
SMF26EVT EQU   X'4000'  EVENT SECTION PRESENT                  @ZA05171
SMF26ATU EQU   X'2000'  ACTUALS SECTION PRESENT                @ZA05171
* BEGINNING OF DESCRIPTIVE SECTION                               Y02120
SMF26LN1 DS    BL2      LGTH OF THIS SECTION INCLUDING SELF    @YL02120
SMF26RV1 DS    BL2      RESV                                   @YL02120
SMF26IN2 DS    BL1      ADDITIONAL JOB INFORMATION(JES2 ONLY)  @YL02120
*                       BIT 0 - BACKGROUND BATCH               @YL02120
*                       1 - FOREGROUND TIME SHARING            @YL02120
*                       2 - SYSTEM TASK                        @YL02120
*                       3 - NO JOURNAL OPTION                  @YL02120
*                       4 - NO OUTPUT OPTION                   @YL02120
*                       5 - TYPRUN=SCAN                        @Z30AQPF
*                       6 - TYPRUN=COPY                        @Z30AQPF
*                       7 - RESERVED                           @YL02120
         ORG   SMF26IN2                                        @YL02120
SMF26IN3 DS    BL1      ADDITIONAL JOB INFORMATION(JES3 ONLY)  @ZA05171
SMF26DJC EQU    X'80'   BIT 0 - DEPENDENT JOB(//*NET JOB       @ZA05171
*                           PROCESSED)                         @YL02120
SMF26DLJ EQU    X'40'   1 - JOB SPECIFIED DEADLINE SCHEDULING  @ZA05171
SMF26DLM EQU    X'20'   2 - DEADLINE JOB MET DEADLINE          @ZA05171
SMF26PRJ EQU    X'10'   3 - //*PROCESS STMT PROCESSED          @ZA05171
SMF26NJX EQU    X'08'   4 - JOB LEFT SYSTEM VIA NJP(NETWORK    @ZA05171
*                           JOB PROCESSING)                    @YL02120
SMF26NJE EQU    X'04'   5 - JOB ENTERED SYSTEM VIA NJP         @ZA05171
SMF26DJO EQU    X'02'   6 - JOB LEFT SYSTEM VIA DJ(DUMP JOB)   @ZA05171
SMF26DJE EQU    X'01'   7 - JOB ENTERED SYSTEM VIA DJ          @ZA05171
SMF26INF DS    BL1      JOB INFORMATION                          Y02120
SMF26JCP EQU   X'80'    0 - JOB PRIORITY EXTERNALLY ASSIGNED   @ZA05171
*                          (JES2-VIA /*PRIORITY STMT)          @YL02120
*                          (JES3-VIA PRTY PARM ON JOB STMT)    @YL02120
SMF26STU EQU    X'40'   1 - SETUP JOB                          @ZA05171
*                          (JES2-/*SETUP STMT PROCESSED)       @YL02120
*                          (JES3-PROCESSED BY PREEXEC SETUP)   @YL02120
SMF26TRH EQU    X'20'   2 - JOB HELD VIA TYPERUN=HOLD          @ZA05171
*                       3 - JOB REQUESTED NO JES JOB LOG(JES2) @ZA05171
*                       4 - EXEC BATCHING JOB (JES2 ONLY)      @YL02120
SMF26EIR EQU    X'04'   5 - JOB ENTERED VIA INTERNAL RDR       @ZA05171
SMF26MRE EQU    X'02'   6 - JOB WAS RERUN BY JES               @ZA05171
SMF26OPC EQU    X'01'   7 - OPER CANCELLED JOB BY JES CMND     @ZA05171
SMF26JNM DS    CL4      JES ASSIGNED JOB #                     @YL02120
SMF26JID DS    CL8      JOB ID OF FORM XXX0YYYY WHERE YYYY IS  @YL02120
*                       JES ASSIGNED JOB # & XXX IS            @YL02120
*                       'JOB' - NORMAL JES JOB                 @YL02120
*                       'STC' - STARTED TASK CONTROL           @YL02120
*                       'TSU' - TSO USER                       @YL02120
SMF26NAM DS    CL20     PROGRAMMER'S NAME FROM JOB CARD          Y02120
SMF26MSG DS    CL1      MESSAGE CLASS FROM JOB CARD              Y02120
SMF26CLS DS    CL1      JOB CLASS FROM JOB CARD                  Y02120
SMF26XPI DS    BL1      INITIAL JOB PRIORITY                   @YL02120
SMF26XPS DS    BL1      SELECTION PRIORITY AT TIME JOB SELECTED@YL02120
SMF26OPI DS    BL1      INITIAL OUTPUT PRIORITY(JES2 ONLY)     @YL02120
SMF26OPS DS    BL1      OUTPUT PRIORITY AT SELECTION(JES2 ONLY)@YL02120
SMF26LOC DS    BL2      INPUT ROUTE CODE (JES2 ONLY)           @ZA05171
         ORG   SMF26OPI                                        @ZA05171
SMF26RV8 DS    XL4      RESERVED(JES3)                         @ZA05171
SMF26DEV DS    CL8      LOG INPUT DEV NAME OF WHERE JOB READ   @YL02120
*                       USERID IF TSO SUBMIT                   @YL02120
*                       SYSTEM NAME IF NJP                     @YL02120
SMF26ACT DS    CL4      PROGRAMMER'S ACCOUNTING # (JES2 ONLY)  @YL02120
SMF26ROM DS    CL4      PROGRAMMER'S ROOM # (JES2 ONLY)        @YL02120
         ORG   SMF26ACT                                        @ZA05171
SMF26RVA DS    XL8      RESERVED(JES3)                         @ZA05171
SMF26XTM DS    BL4      ESTIMATED EXECUTION TIME(SEC)          @YL026WA
SMF26ELN DS    BL4      ESTIMATED OUTPUT LINES                   Y02120
SMF26EPU DS    BL4      ESTIMATED OUTPUT PUNCHED CARDS           Y02120
*                                                              @YL02120
SMF26J2D EQU   *        JES2 ONLY DESCRIPTIVE SECTION          @YL02120
SMF26FRM DS    CL4      DEFAULT OUTPUT FORM #                    Y02120
SMF26CYP DS    BL2      PRINT COPY COUNT IF FOR ALL OF JOB       Y02120
SMF26LIN DS    BL2      LINES PER PAGE                           Y02120
SMF26PRR DS    BL2      PRINT ROUTE CODE                         Y02120
SMF26PUR DS    BL2      PUNCH ROUTE CODE                         Y02120
SMF26PDD DS    CL8      JES2 PROC DDNAME FOR JCL CONVERSION    @YM04806
         ORG   SMF26J2D                                        @YL02120
SMF26J3D EQU   *        JES3 ONLY DESCRIPTIVE SECTION          @YL02120
SMF26DTY DS    CL1      DEADLINE SCHEDULE TYPE                 @YL02120
SMF26RV6 DS    BL3      RESERVED                               @YL02120
SMF26IGP DS    CL8      LOG INPUT DEV GROUP NAME(JOB SOURCE)   @YL02120
SMF26PD3 DS    CL8      PROCEDURE DD NAME                      @YL02120
SMF26NJO DS    CL8      SYS NAME TO WHICH JOB SENT VIA NJP     @YL02120
SMF26NJI DS    CL8      SYS FROM WHICH JOB RECEIVED VIA NJP    @YL02120
SMF26NET DS    CL8      ID OF DEPENDENT JOB NET TO WHICH       @YL02120
*                       THIS JOB BELONGS(FROM //*NET STMT)     @YL02120
SMF26DTM DS    BL4      DEADLINE SCHEDULE TIME                 @YL02120
SMF26DDT DS    PL4      DEADLINE SCHEDULE DATE                 @YL02120
SMF26CLN DS    CL8      JOB CLASS NAME                         @YL02120
* BEGINNING OF EVENT SECTION                                     Y02120
         ORG   SMF26LN1 ORG TO BEGIN OF VARIABLE SECTION       @ZA17757
SMF26LN2 DS    BL2      LGTH OF THIS SECTION(INCLUDING SELF-60)  Y02120
SMF26RV2 DS    BL2      RESV                                     Y02120
SMF26RPT DS    BL4      READER STOP TIME                         Y02120
SMF26RPD DS    PL4      READER STOP DATE                         Y02120
SMF26CST DS    BL4      CONVERTER START TIME                     Y02120
SMF26CSD DS    PL4      CONVERTER START DATE                     Y02120
SMF26CPT DS    BL4      CONVERTER STOP TIME                      Y02120
SMF26CPD DS    PL4      CONVERTER STOP DATE                      Y02120
SMF26XST DS    BL4      EXECUTION START TIME                     Y02120
SMF26XSD DS    PL4      EXECUTION START DATE                     Y02120
SMF26XPT DS    BL4      EXECUTION STOP TIME                      Y02120
SMF26XPD DS    PL4      EXECUTION STOP DATE                      Y02120
SMF26OST DS    BL4      OUTPUT PROCESSOR START TIME              Y02120
SMF26OSD DS    PL4      OUTPUT PROCESSOR START DATE              Y02120
SMF26OPT DS    BL4      OUTPUT PROCESSOR STOP TIME               Y02120
SMF26OPD DS    PL4      OUTPUT PROCESSOR STOP DATE               Y02120
* BEGINNING OF ACTUALS SECTION                                   Y02120
         ORG   SMF26LN1 ORG TO BEGIN OF VARIABLE SECTION       @ZA17757
SMF26LN3 DS    BL2      LGTH OF THIS SECTION(INCLUDING SELF-32)  Y02120
SMF26RV4 DS    BL2      RESV                                     Y02120
SMF26ICD DS    BL4      # OF INPUT CARDS (JCL AND DATA)          Y02120
SMF26XLN DS    BL4      OUTPUT LINES GENERATED TO SPOOL          Y02120
SMF26XPU DS    BL4      OUTPUT PUNCH CARDS GENERATED TO SPOOL    Y02120
SMF26RID DS    CL4      INPUT PROCESSOR SYSTEM ID              @Z30AQPF
SMF26CID DS    CL4      JCL CONVERSION PROCESSOR SYSTEM ID     @Z30AQPF
SMF26XID DS    CL4      EXECUTION PROCESSOR SYSTEM ID          @Z30AQPF
SMF26OID DS    CL4      OUTPUT PROCESSOR SYSTEM ID             @Z30AQPF
SMF26JAF DS    CL42     JOB ACCT FIELDS (MAX. LEN 42)          @ZA05171
         AGO   .CONTB                                            Y02120
         MEND       */
 %IFAL20: IF IFAR20='' %THEN %GOTO IFAL21;
    DCL 1 SMFRCD20 BASED(SMF20PTR) BDY(WORD),
 /* RECORD TYPE 20 - JOB INITIATION                                  */
 /* WRITTEN BY JOB INITIATION                                        */
         3 SMF20LEN FIXED(15),    /* RDW RECORD LENGTH               */
         3 SMF20SEG FIXED(15),    /* RDW SEGMENT DESCRIPTOR          */
         3 SMF20FLG BIT(8),       /* OPERATING ENVIRONMENT           */
         3 SMF20RTY FIXED(8),     /* RECORD TYPE 20                  */
         3 SMF20TME FIXED(31) BDY(BYTE), /* TOD RECORD WRITTEN       */
         3 SMF20DTE CHAR(4),      /* DATE RECORD WRITTEN             */
         3 SMF20SID CHAR(4),      /* SYSTEM ID FROM INSTALLATION     */
         3 SMF20JBN CHAR(8),      /* JOB NAME                        */
         3 SMF20RST FIXED(31) BDY(BYTE), /*READER START TIME(.01 SEC)*/
         3 SMF20RSD CHAR(4),      /* READER START DATE               */
         3 SMF20UIF CHAR(8),      /* USER ID FIELD                   */
          5 SMF20UID CHAR(8),
         3 SMF20RIN FIXED(15) BDY(BYTE),             /*      @G32FPRL*/
           5 SMF20RLO FIXED(15) BDY(BYTE), /* OFFSET FROM BEGINNING
                                              OF RECORD TO RELOCATABLE
                                              AREA           @G32FPRL*/
         3 SMF20PGM CHAR(20),     /* PROGRAMMER'S NAME               */
         3 SMF20NAF FIXED(8),     /* # OF ACCT FIELDS FOLLOWING      */
         3 SMF20ACT CHAR(*);      /* ACCOUNTING FIELDS       @G32FPRL*/
    DCL 1 SMF20AFD BASED BDY(BYTE), /* ACCT SECTION                  */
         3 SMF20ANC PTR(8),       /* # OF CHAR IN THIS ACCT FIELD    */
         3 SMF20BCD CHAR(*);      /* ACCT FIELD CHARACTERS           */
         /* RELOCATABLE AREA  @G32FPRL*/
    DCL 1 SMF20RLA BASED(ADDR(SMF20FLG)+SMF20RLO) BDY(BYTE),
         3 SMF20RLS FIXED(15) BDY(BYTE), /* SIZE OF RELOCATABLE AREA
                                                             @G32FPRL*/
         3 SMF20GRP CHAR(8),      /* RACF GROUP ID           @G32FPRS*/
         3 SMF20RUD CHAR(8),      /* RACF USER ID            @G32FPRS*/
         3 SMF20TID CHAR(8);      /* RACF TERMINAL ID        @G32FPRS*/
 %IFAL21: IF IFAR21='' %THEN %GOTO IFAL22;
    DCL 1 SMFRCD21 BASED(SMF21PTR) BDY(WORD),
 /* RECORD TYPE 21 - ERROR STATISTICS BY VOLUME                      */
 /* WRITTEN WHENEVER A TAPE CONTAINING A USER'S DATA SET IS DEMOUNTED*/
         3 SMF21LEN FIXED(15),    /* RDW RECORD LENGTH               */
         3 SMF21SEG FIXED(15),    /* RDW SEGMENT DESCRIPTOR          */
         3 SMF21FLG BIT(8),       /* OPERATING ENVIRONMENT           */
         3 SMF21RTY FIXED(8),     /* RECORD TYPE 21                  */
         3 SMF21TME FIXED(31) BDY(BYTE), /* TOD RECORD WRITTEN       */
         3 SMF21DTE CHAR(4),      /* DATE RECORD WRITTEN             */
         3 SMF21SID CHAR(4),      /* SYSTEM ID FROM INSTALLATION     */
         3 SMF21LGH FIXED(15),    /* LGTH FROM HERE ON + THESE 2     */
         3 SMF21VOL CHAR(6),      /* VOLUME SERIAL NUMBER            */
         3 SMF21CA CHAR(2),       /* CHANNEL ADDRESS                 */
         3 SMF21UCB CHAR(4),      /* UCB TYPE CODE                   */
         3 SMF21TR FIXED(8),      /* # OF TEMPORARY READ ERRORS      */
         3 SMF21TW FIXED(8),      /* # OF TEMPORARY WRITE ERRORS     */
         3 SMF21SIO FIXED(15),    /* # OF START I/O'S                */
         3 SMF21PR FIXED(8),      /* # OF PERMANENT READ ERRORS      */
         3 SMF21PW FIXED(8),      /* # OF PERMANENT WRITE ERRORS     */
         3 SMF21NB FIXED(8),      /* # OF NOISE BLOCKS               */
         3 SMF21ERG FIXED(15) BDY(BYTE), /* # OF ERASE GAPS          */
         3 SMF21CLN FIXED(15) BDY(BYTE), /* # OF CLEANER ACTIONS     */
         3 SMF21DEN FIXED(8),     /* TAPE DENSITY CODE               */
         3 SMF21BLS FIXED(15),    /* BLOCK SIZE FOR FIXED LGTH ORG   */
         3 SMF21RV0 CHAR(2);      /* RESV                            */
 %IFAL22: IF IFAR22='' %THEN %GOTO IFAL23;
    DCL 1 SMFRCD22 BASED(SMF22PTR) BDY(WORD),
 /* RECORD TYPE 22 - CPU, CHANNEL AND STORAGE CONFIGURATION          */
 /* WRITTEN AT IPL AND BY VARY ON OR OFF WHENEVER A CPU, CHANNEL OR  */
 /* STORAGE BOX IS CHANGED                                           */
         3 SMF22LEN FIXED(15),    /* RDW RECORD LENGTH               */
         3 SMF22SEG FIXED(15),    /* RDW SEGMENT DESCRIPTOR          */
         3 SMF22FLG BIT(8),       /* OPERATING ENVIRONMENT           */
         3 SMF22RTY FIXED(8),     /* RECORD TYPE 22                  */
         3 SMF22TME FIXED(31) BDY(BYTE), /* TOD RECORD WRITTEN       */
         3 SMF22DTE CHAR(4),      /* DATE RECORD WRITTEN             */
         3 SMF22SID CHAR(4),      /* SYSTEM ID FROM INSTALLATION     */
         3 SMF22IND FIXED(15),    /* RECORD CREATOR INDICATOR
                                     X'0001' AT IPL
                                     X'0002' BY VARY ON
                                     X'0003' BY VARY OFF             */
         3 SMF22ECT FIXED(15);    /* # RESOURCE ELEMENTS FOLLOWING   */
    DCL 1 SMF22CPU BASED BDY(HWORD), /* CPU ELEMENT                  */
         3 SMF22RV0 CHAR(1),      /* RESV                            */
         3 SMF22PID FIXED(8),     /* ELEMENT ID, X'01' FOR CPU       */
         3 SMF22CPN CHAR(2),      /* CPU MODEL #                     */
         3 SMF22RV1 CHAR(1),      /* RESV                            */
         3 SMF22CPA CHAR(1);      /* CPU ADDRESS                     */
    DCL 1 SMF22CHL BASED BDY(HWORD), /* CHANNEL ELEMENT              */
         3 SMF22CSD CHAR(1),      /* CHANNEL SET ID        @G64APJW  */
         3 SMF22CID FIXED(8),     /* ELEMENT ID, X'02' FOR CHANNEL   */
         3 SMF22CHN CHAR(2),      /* CHANNEL TYPE AND MODEL #        */
         3 SMF22CHA CHAR(1),      /* CHANNEL ADDRESS                 */
         3 SMF22CPD CHAR(1);      /* CPU ADDRESS                     */
    DCL 1 SMF22STR BASED BDY(HWORD), /* STORAGE ELEMENT              */
         3 SMF22RV3 CHAR(1),      /* RESV                            */
         3 SMF22TID FIXED(8),     /* ELEMENT ID, X'03' FOR STORAGE   */
         3 SMF22PGL FIXED(15),    /* PG # OF LOWEST PAGE IN STORAGE  */
         3 SMF22NPG FIXED(15);    /* # OF PAGES IN STORAGE           */
    DCL 1  SMF22IPL BASED BDY(BYTE),   /* IPL ELEMENT        @Y30AQPF*/
         3 SMF22RV4 CHAR(1),       /*RESV                    @Y30AQPF*/
         3 SMF22IID FIXED(8),      /* ELEMENT ID, X'04' FOR IPL
                                        @Y30AQPF*/
         3 SMF22ION BIT(320);      /* SS/I UNITS ONLINE AT IPL
                                       @Y30AQPF*/
    DCL 1 SMF22VON BASED BDY(BYTE), /* VARY S ONLINE ELEMENT @Y30AQPF*/
         3 SMF22RV5 CHAR(1),       /* RESERVED               @Y30AQPF*/
         3 SMF22NID FIXED(8),      /* ELEMENT ID, X'05' FOR VARY ONLI
                                       @Y30AQPF*/
         3 SMF22RVA CHAR(1),       /* RESERVED               @Y30AQPF*/
         3 SMF22NSI CHAR(3);       /* SUBSYSTEM ID           @Y30AQPF*/
    DCL 1 SMF22VOF BASED BDY(BYTE), /* VARY S OFFLINE ELEMT  @Y30AQPF*/
         3 SMF22RV6 CHAR(1),       /* RESERVED               @Y30AQPF*/
         3 SMF22FID FIXED(8),      /* ELEMENT ID, X'06' FOR VARY OFFL
                                       @Y30AQPF*/
         3 SMF22RVB CHAR(1),       /* RESERVED               @Y30AQPF*/
         3 SMF22FSI CHAR(3);       /* SUBSYSTEM ID           @Y30AQPF*/
 %IFAL23: ;
 %IFAL25: IF IFAR25='' %THEN %GOTO IFAL26;
   DCL 1 SMFRCD25 BASED(SMF25PTR) BDY(WORD),               /*@Y02BPSE*/
 /* JES3 WILL PRODUCE ONE SMF RECORD 25 FOR EACH JOB TO      @Y02BPSE*/
 /* REPRESENT ALL JCL STATIC ALLOCATIONS, PLUS SEPARATE      @Y02BPSE*/
 /* RECORDS FOR EACH DYNAMIC ALLOCATION REQUEST AND          @Y02BPSE*/
 /* SEPARATE RECORDS FOR EACH GROUP OF CATALOG ALLOCATIONS.  @Y02BPSE*/
        3 SMF25LEN FIXED(15), /* RDW RECORD LENGTH           @Y02BPSE*/
        3 SMF25SEG FIXED(15), /* RDW SEGMENT DESCRIPTOR      @Y02BPSE*/