*        %GOTO IFAL47;   /*
         MACRO
&NAME    IFASMFR5 &RECTYPE
.* *                                                                  *
.* * MACMEAN IFASMFR5 MEANS SYSTEM MANAGEMENT FACILITY RECORD MAPPING *
.* * MACCOMP Y-2 SC102/BL27P                                          *
.* * MACSTAT Y-2 73298/42020                                          *
.* * METHOD OF ACCESS                                                 *
.* *  PL/S - INCLUDE MACRO FROM LIBRARY                               *
.* *          EXAMPLE - %INCLUDE SYSLIB(IFASMFR5)                     *
.* *                                                                  *
.* *          THIS MACRO EXPANDS RECORDS 47 - 54.                     *
.* *                                                                  *
.* *
.* THIS IS AN SMF MACRO WHICH BUILDS SMF RECORDS 47-54. THE REQUIRED
.* FORMAT IS -
.*
.*          IFASMFR5 &RECTYPE
.**********************************************************************
         AIF   (&RECTYPE EQ 47).IFAS047                         Y02120
         AIF   (&RECTYPE EQ 48).IFAS048                         Y02120
         AIF   (&RECTYPE EQ 49).IFAS049                       @YL026WA
         AIF   (&RECTYPE EQ 50).IFAS050
.E5      ANOP                                                    Y02120
         SPACE 3
         MNOTE 4,'&RECTYPE INVALID RECORD TYPE SPECIFIED'
.CONTB   ANOP
         MEXIT
.IFAS047 ANOP                                                    Y02120
         EJECT                                                   Y02120
* SUBSYSTEM EVENT START RECORD TYPE 47                           Y02120
         DS    0F       ALIGN TO FULL WORD BOUNDRY               Y02120
SMFRCD47 EQU   *        START OF RECORD                        @ZA05171
SMF47HDR EQU   *        HEADER SEGMENT                           Y02120
SMF47LEN DS    BL2      RECORD LENGTH                            Y02120
SMF47SEG DS    BL2      SEGMENT DESCRIPTOR                       Y02120
SMF47FLG DS    BL1      HEADER FLAG BYTE                         Y02120
SMF47RTY DS    BL1      RECORD TYPE 47                           Y02120
SMF47TME DS    BL4      TOD FROM TIME MACRO BINARY               Y02120
SMF47DTE DS    PL4      DATE FROM TIME MACRO                     Y02120
SMF47SID DS    CL4      SYSTEM IDENTIFICATION                    Y02120
* SUBSYSTEM IDENTIFICATION SECTION                               Y02120
SMF47SBS DS    BL2      SUBSYSTEM IDENTIFIER                     Y02120
*                       X'0002' JES2                             Y02120
*                       X'0005' JES3                           @ZA05171
*                       X'0006' SS06                           @Z40EPPF
SMF47RSV DS    BL2      RESV                                     Y02120
SMF47LRR DS    BL2      LGTH OF REMAINDER OF RECORD              Y02120
*                       (NOT INCLUDING THIS FIELD)               Y02120
SMF47SBG EQU   *        SUBSYSTEM SECTION BEGINNING              Y02120
* JES2 AND JES3 SECTION                                        @ZA05171
SMF47EVT DS    BL2      EVENT STARTING                         @ZA05171
SMF47SON EQU   1        TERMINAL SIGNED ON                     @ZA05171
SMF47STL EQU   2        LINE STARTED                           @ZA05171
* BEGINNING OF GENERAL SECTION                                   Y02120
SMF47LN1 DS    BL2      LGTH OF THIS SECTION(INCLUDING SELF-26)  Y02120
SMF47RMT DS    CL8      REMOTE NAME                              Y02120
SMF47LIN DS    CL8      LINE NAME                                Y02120
SMF47PSW DS    CL8      PASSWORD                                 Y02120
* BEGINNING OF SIGNON MESSAGE SECTION                            Y02120
* THIS SECTION EXISTS ONLY FOR SIGNON EVENT STARTS               Y02120
SMF47LN2 DS    BL2      LGTH OF THIS SECTION(INCLUDING SELF-38)  Y02120
SMF47MSG DS    CL36     MESSAGE FOR SIGNON, COLUMNS 35-70 OF     Y02120
*                       SIGNON CARD.                             Y02120
SMF47RVJ DS    CL8      RESERVED FOR JES3                      @ZA05171
SMF47RVU DS    CL4      RESERVED FOR USER                      @ZA05171
SMF47END DS    0X       END OF JES3 RECORD                     @ZA05171
SMF47SIZ DS    0XL(SMF47END-SMFRCD47)  SIZE OF JES3 47 RECORD  @ZA05171
         ORG   SMF47SBG                                          Y02120
* SS06 SECTION                                                 @Z40EPPF
SMF47LCF DS    BL1      LOGON CONDITION FLAG                   @Z40EPPF
SMF47UNL EQU   128      USER NOT LOGGED OFF                    @Z40EPPF
SMF47CWK EQU   32       CONTINUE WORKSPACE EXISTED AT LOGON    @Z40EPPF
SMF47SPA EQU   4        SERVICE PROGRAM ACCOUNT RECORD         @Z40EPPF
SMF47ULK EQU   1        USER LOCKED                            @Z40EPPF
SMF47UID DS    BL3      USER ID                                @Z40EPPF
SMF47LTC DS    BL1      LIBRARY TYPE CODE                      @Z40EPPF
SMF47PLI DS    BL3      PROJECT LIB ID                         @Z40EPPF
SMF47JID DS    CL6      JOB ENTRY ID CODE                      @Z40EPPF
SMF47LAA DS    BL1      LANGUAGE ATTRIBUTE ASSIGNED            @Z40EPPF
SMF47PCI DS    BL1      PRIVILEGED CLASS INDICATORS            @Z40EPPF
SMF47DSL DS    BL4      DASD SPACE IN LIBRARY                  @Z40EPPF
*                       (1K UNITS)                             @Z40EPPF
SMF47DPL DS    BL4      DASD SPACE PROJECT/PUBLIC              @Z40EPPF
*                       LIBRARIES(1K UNITS)                    @Z40EPPF
         ORG   SMF47SBG                                        @Z40EPPF
         AGO   .CONTB                                            Y02120
.IFAS048 ANOP                                                    Y02120
         EJECT                                                   Y02120
* SUBSYSTEM EVENT STOP RECORD TYPE 48                            Y02120
         DS    0F       ALIGN TO FULL WORD BOUNDRY               Y02120
SMFRCD48 EQU   *        START OF RECORD                        @ZA05171
SMF48HDR EQU   *        HEADER SEGMENT                           Y02120
SMF48LEN DS    BL2      RECORD LENGTH                            Y02120
SMF48SEG DS    BL2      SEGMENT DESCRIPTOR                       Y02120
SMF48FLG DS    BL1      HEADER FLAG BYTE                         Y02120
SMF48RTY DS    BL1      RECORD TYPE 48                           Y02120
SMF48TME DS    BL4      TOD FROM TIME MACRO BINARY               Y02120
SMF48DTE DS    PL4      DATE FROM TIME MACRO                     Y02120
SMF48SID DS    CL4      SYSTEM IDENTIFICATION                    Y02120
* SUBSYSTEM IDENTIFICATION SECTION                               Y02120
SMF48SBS DS    BL2      SUBSYSTEN IDENTIFIER                     Y02120
*                       X'0002' JES2                             Y02120
*                       X'0005' JES3                           @ZA05171
*                       X'0006' SS06                           @Z40EPPF
SMF48RSV DS    BL2      RESV                                     Y02120
SMF48LRR DS    BL2      LGTH OF REMAINDER OF RECORD              Y02120
*                       (NOT INCLUDING THIS FIELD)               Y02120
SMF48SBP EQU   *        SUBSYSTEM SECTION BEGINNING              Y02120
* JES2 AND JES3 COMMON SECTION                                 @ZA05171
SMF48EVT DS    BL2      TYPE OF EVENT STOPPED                  @ZA05171
SMF48SOF EQU   1        LINE HAS SIGNED OFF                    @ZA05171
SMF48CAN EQU   2        LINE CANCELLED BY OPERATOR             @ZA05171
SMF48RV1 DS    BL2      RESV                                     Y02120
SMF48RMT DS    CL8      REMOTE NAME                              Y02120
SMF48LIN DS    CL8      LINE NAME                                Y02120
SMF48PSW DS    CL8      PASSWORD                                 Y02120
SMF48SBG EQU   *        JES2 AND JES3 UNCOMMON SECTIONS        @ZA05171
* JES2 SECTION                                                 @ZA05171
SMF48IO  DS    BL4      # EXCPS(NOT INCLUDING LINE REPEATS)    @YL02120
SMF48NAK DS    BL4      # NAKS TO WRITE TEXT-NEG ACKNOWLEDGEMTS@YL02120
SMF48DCK DS    BL4      # DATA CHECKS TO READ TEXT             @YL02120
SMF48OUT DS    BL4      # TIME OUTS TO READ TEXT               @YL02120
SMF48ERR DS    BL4      SUM OF ALL OTHER LINE ERRORS           @YL02120
SMF48LAA DS    CL3      LINE ADAPTER ADDRESS FROM UCB          @YL02120
         ORG   SMF48SBG                                        @ZA05171
* JES3 SECTION                                                 @ZA05171
SMF48XCP DS    BL28        EXCP COUNTS AND ERROR STATISTICS    @ZA05171
         ORG   SMF48XCP                                        @ZA05171
SMF48TRN DS    BL4      NUMBER OF TRANSMISSIONS                @ZA05171
SMF48ERS DS    BL4      NUMBER OF LINE ERRORS                  @ZA05171
SMF48TOT DS    BL2      NUMBER OF TIME-OUTS                    @ZA05171
SMF48NKS DS    BL2      NUMBER OF NAK RESPONSES TO WRITE       @ZA05171
SMF48S0  DS    BL1      NUMBER OF COMMAND REJECTS              @ZA05171
SMF48S1  DS    BL1      NUMBER OF INTERVENTIONS REQUIRED       @ZA05171
SMF48S2  DS    BL1      NUMBER OF BUS-OUT CHECKS               @ZA05171
SMF48S3  DS    BL1      NUMBER OF EQUIPMENT CHECKS             @ZA05171
SMF48S4  DS    BL1      NUMBER OF DATA CHECKS                  @ZA05171
SMF48S5  DS    BL1      NUMBER OF DATA OVERRUNS                @ZA05171
SMF48S6  DS    BL1      NUMBER OF LOST DATAS                   @ZA05171
SMF48USR DS    BL9      RESERVED FOR USER                      @ZA05171
SMF48ADP DS    CL3      LINE ADAPTER ADDRESS                   @ZA05171
SMF48RVJ DS    CL8      RESERVED FOR JES3                      @ZA05171
SMF48RVU DS    CL4      RESERVED FOR USER                      @ZA05171
SMF48END DS    0X       END OF JES3 RECORD                     @ZA05171
SMF48SIZ DS    0XL(SMF48END-SMFRCD48)  SIZE OF JES3 48 RECORD  @ZA05171
         ORG   SMF48SBP                                          Y02120
* SS06 SECTION                                                 @Z40EPPF
SMF48FLS DS    BL1      LOGOFF FLAGS                           @Z40EPPF
SMF48RPI EQU   128      RECORD FOR PREVIOUS INCOMPLETE SESSION @Z40EPPF
SMF48CNI EQU   64       CANCEL ISSUED                          @Z40EPPF
SMF48CWK EQU   32       CONTINUE WORKSPACE SAVED               @Z40EPPF
SMF48CPG EQU   16       CONTINUE PURGED                        @Z40EPPF
SMF48HSI EQU   8        HALT OR STOP ISSUED                    @Z40EPPF
SMF48SPA EQU   4        SERVICE PROGRAM ACCOUNT RECORD         @Z40EPPF
SMF48ULK EQU   1        USER LOCKED                            @Z40EPPF
SMF48UID DS    BL3      USER ID                                @Z40EPPF
SMF48CPU DS    BL4      CPU TIME                               @Z40EPPF
SMF48CNT DS    BL4      CONNECT TIME (SECONDS FOR              @Z40EPPF
*                       THIS TERMINAL SESSION                  @Z40EPPF
SMF48CTH DS    BL4      CONNECT TIME (SECONDS) FOR THIS        @Z40EPPF
*                       TERMINAL SESSION FOR ATTACHED          @Z40EPPF
*                       HARDCOPY DEVICE                        @Z40EPPF
SMF48VIR DS    BL4      VIRTUAL STORAGE USED                   @Z40EPPF
*                       (THOUSANDS OF BYTE-SECONDS)            @Z40EPPF
*                       DURING TERMINAL SESSION                @Z40EPPF
SMF48DIO DS    BL4      DASD I/O COUNT FOR THIS                @Z40EPPF
*                       TERMINAL SESSION                       @Z40EPPF
SMF48TIO DS    BL4      TELEPROCESSING I/O COUNTS              @Z40EPPF
*                       DURING TERMINAL SESSION                @Z40EPPF
SMF48DSL DS    BL4      DASD SPACE IN THIS LIBRARY             @Z40EPPF
*                       (IN 1K UNITS)                          @Z40EPPF
SMF48DSP DS    BL4      DASD SPACE IN PROJECT/PUB              @Z40EPPF
*                       LIBRARIES (1K UNITS)                   @Z40EPPF
SMF48CPD DS    BL4      CPU TIME TO DATE (HUNDREDTHS           @Z40EPPF
*                       OF SECONDS                             @Z40EPPF
SMF48CTD DS    BL4      CONNECT TIME TO DATE (SECS)            @Z40EPPF
SMF48CDH DS    BL4      CONNECT TIME FOR HARDCOPY              @Z40EPPF
*                       DEVICE TO DATE (SECONDS)               @Z40EPPF
SMF48VSD DS    BL4      VIRT STORAGE USED TO DATE              @Z40EPPF
*                       (THOUSANDS OF BYTE-SECONDS)            @Z40EPPF
SMF48DID DS    BL4      DASD I/O COUNTS TO DATE                @Z40EPPF
SMF48TID DS    BL4      TP I/O COUNTS TO DATE                  @Z40EPPF
         AGO   .CONTB                                            Y02120
.IFAS049 ANOP                                                  @YL026WA
         EJECT                                                 @YL026WA
* SUBSYSTEM INTEGRITY RECORD TYPE 49                           @YL02120
         DS    0F       ALIGN TO FULL WORD BOUNDRY             @YL026WA
SMFRCD49 EQU   *        START OF RECORD                        @ZA05171
SMF49HDR EQU   *        HEADER SEGMENT                         @YL026WA
SMF49LEN DS    BL2      RECORD LENGTH                          @YL026WA
SMF49SEG DS    BL2      SEGMENT DESCRIPTOR                     @YL026WA
SMF49FLG DS    BL1      HEADER FLAG BYTE                       @YL026WA
SMF49RTY DS    BL1      RECORD TYPE 49                         @YL026WA
SMF49TME DS    BL4      TOD FROM TIME MACRO BINARY             @YL026WA
SMF49DTE DS    PL4      DATE FROM TIME MACRO                   @YL026WA
SMF49SID DS    CL4      SYSTEM IDENTIFICATION                  @YL026WA
* SUBSYSTEM IDENTIFICATION SECTION                             @YL026WA
SMF49SBS DS    BL2      SUBSYSTEM IDENTIFIER                   @YL026WA
*                       X'0002' JES2                           @YL026WA
*                       X'0005' JES3                           @ZA05171
*                       X'0006' SS06                           @Z40EPPF
SMF49RSV DS    BL2      RESV                                   @YL026WA
SMF49LRR DS    BL2      LGTH OF REMAINED OF RECORD             @YL026WA
*                       (NOT INCLUDING THIS FIELD)             @YL026WA
SMF49SBG EQU   *        SUBSYSTEM SECTION BEGINNING            @YL026WA
* JES2 AND JES3 SECTION                                        @ZA05171
SMF49EVT DS    BL2      EVENT STARTING                         @ZA05171
* FOLLOWING BIT DEFINITIONS APPLY TO JES2                      @ZA05171
*        EQU   X'01'    SIGNON                                 @ZA05171
*        EQU   X'02'    START LINE                             @ZA05171
* FOLLOWING BIT DEFINITIONS APPLY TO JES3                      @ZA05171
SMF49NER EQU   1        TERMINAL NOT DEFINED                   @ZA05171
SMF49PER EQU   2        INVALID PASSWORD                       @ZA05171
SMF49LER EQU   3        LINE ALREADY SIGNED ON                 @ZA05171
SMF49TER EQU   4        TERMINAL ALREADY SIGNED ON             @ZA05171
* BEGINNING OF GENERAL SECTION                                 @YL026WA
SMF49LN1 DS    BL2      LGTH OF THIS SECTION(INCLUDING SELF-26)@YL026WA
SMF49RMT DS    CL8      REMOTE NAME                            @YL026WA
SMF49LIN DS    CL8      LINE NAME                              @YL026WA
SMF49PSW DS    CL8      PASSWORD USED(INVALID)                 @YL02120
* BEGINNING OF SIGNON MESSAGE SECTION                          @YL026WA
* THIS SECTION EXISTS ONLY FOR SIGNON EVENT STARTS             @YL026WA
SMF49LN2 DS    BL2      LGTH OF THIS SECTION(INCLUDING SELF-38)@YL026WA
SMF49MSG DS    CL36     MESSAGE FOR SIGNON, COLUMNS 35-70 OF   @YL026WA
*                       SIGNON CARD.                           @YL026WA
SMF49END DS    0X       END OF JES3 RECORD                     @ZA05171
SMF49SIZ DS    0XL(SMF49END-SMFRCD49)  SIZE OF JES3 49 RECORD  @ZA05171
         ORG   SMF49SBG                                        @YL026WA
*       SS06 SECTION                                           @Z40EPPF
SMF49VID DS    BL3      VIOLATOR IDENTIFICATION                @Z40EPPF
SMF49LNA DS    BL3      LIBRARY NUMBER OR ACCESSED LIBRARY     @Z40EPPF
SMF49RV1 DS    BL2      RESERVED                               @Z40EPPF
SMF49FLN DS    CL12     FILENAME OF FILE ATTEMPTED             @Z40EPPF
SMF49UFO DS    BL3      USERNUMBER OF FILE OWNER               @Z40EPPF
         ORG   SMF49SBG                                        @Z40EPPF
         AGO   .CONTB                                          @YL026WA
.IFAS050 ANOP
         EJECT
* THIS DSECT DEFINES THE FORMAT FOR RECORD TYPE 50 (VTAM       @ZA20643
* TUNING STATISTICS). THE RECORD LENGTH IS 58 BYTES.           @ZA20643
*                                                              @ZA20643
         DS    0F        ALIGN TO FULL WORD BOUNDARY           @ZA20643
SMFRCD50 EQU   *         READER SEGMENT                        @ZA20643
SMF50LEN DS    BL2'0'    RECORD LENGTH                         @ZA20643
SMF50SEG DS    BL2'0'    SEGMENT DESCRIPTOR                    @ZA20643
SMF50FLG DC    BL1'0'    HEADER FLAG TYPE                      @ZA20643
SMF50RTY DC    BL1'0'    RECORD TYPE 50                        @ZA20643
SMF50TME DC    BL4'0'    TOD,FORMAT FROM TIME MAC W/BIN INTRVL @ZA20643
SMF50DTE DC    PL4'0000' DATE IN PACKED DEC FORM: 00YYDDDF     @ZA20643
SMF50SID DS    CL4   SYSTEM IDENTIFICATION                     @ZA20643
SMF50NME DS    CL8   LOCALLY ATTCHD INTELLIGENT CONTROLLER     @ZA20643
SMF50DLR DS    BL4       DUMP/LOAD/RESTART TCB COUNT           @ZA20643
SMF50CWR DS    BL4       NUMBER OF WRITE CHANNEL PROGRAMS      @ZA20643
SMF50CRD DS    BL4       NUMBER OF READ CHANNEL PROGRAMS       @ZA20643
SMF50ATN DS    BL4       ATTENTIONS (TOTAL)                    @ZA20643
SMF50ATR DS    BL4       ATTENTIONS ON READ                    @ZA20643
SMF50PUI DS    BL4       PIO'S INBOUND                         @ZA20643
SMF50PUO DS    BL4       PIO'S OUTBOUND                        @ZA20643
SMF50BUF DS    BL4       READ BUFFERS USED                     @ZA20643
SMF50SLD DS    BL4       NCP SLOWDOWN                          @ZA20643
         AGO   .CONTB
         MEND          */
 %IFAL47: IF IFAR47='' %THEN %GOTO IFAL48;
    DCL 1 SMFRCD47 BASED(SMF47PTR) BDY(WORD),
 /* RECORD TYPE 47 - SUBSYSTEM EVENT START                           */
         3 SMF47LEN FIXED(15),    /* RDW RECORD LENGTH               */
         3 SMF47SEG FIXED(15),    /* RDW SEGMENT DESCRIPTOR          */
         3 SMF47FLG BIT(8),       /* OPERATING ENVIRONMENT           */
         3 SMF47RTY FIXED(8),     /* RECORD TYPE 47                  */
         3 SMF47TME FIXED(31) BDY(BYTE), /* TOD RECORD WRITTEN       */
         3 SMF47DTE CHAR(4),      /* DATE RECORD WRITTEN             */
         3 SMF47SID CHAR(4),      /* SYSTEM ID FROM INSTALLATION     */
                                  /* SUBSYSTEM IDENTIFICATION SECTION*/
         3 SMF47SBS FIXED(15),    /* SUBSYSTEM IDENTIFIER            */
                                  /* 2 JES2                          */
                                  /* 5 JES3                  @ZA05171*/
                                  /* 6 SS06                  @Z40EPPF*/
         3 SMF47RSV CHAR(2),      /* RESV                            */
         3 SMF47LRR PTR(15),      /* LGTH OF REMAINDER OF RECORD
                                     (NOT INCLUDING THIS FIELD)      */
         3 SMF47SBG CHAR(28),     /* SUBSYSTEM SECTION       @ZA05171*/
 /* JES2 AND JES3 SUBSYSTEM DATA                             @ZA05171*/
          5 SMF47EVT FIXED(15) BDY(BYTE), /* EVENT TYPE STARTING     */
            7 *        BIT(6),             /* RESERVED       @ZA05171*/
            7 SMF47STL BIT(1),            /* LINE STARTED    @ZA05171*/
            7 SMF47SON BIT(1),     /* TERMINAL SIGNED ON     @ZA05171*/
            7 *        BIT(8),     /* RESERVED               @ZA05171*/
                                  /* GENERAL SECTION                 */
          5 SMF47LN1 PTR(15) BDY(BYTE), /* LGTH OF GENERAL SECTION   */
          5 SMF47RMT CHAR(8),     /* REMOTE NAME                     */
          5 SMF47LIN CHAR(8),     /* LINE NAME                       */
          5 SMF47PSW CHAR(8);     /* PASSWORD                        */
    DCL 1 SMF47A BASED(ADDR(SMF47LN1)+SMF47LN1) BDY(HWORD),
                                  /* MESSAGE SECTION FOR SIGNON      */
         3 SMF47LN2 PTR(15),      /* LGTH OF MESSAGE SECTION         */
         3 SMF47MSG CHAR(36),     /* MESSAGE FOR SIGNON, COLUMNS
                                     35-70 OF SIGNON CARD.           */
         3 SMF47RVJ CHAR(8),      /* RESERVED FOR JES3       @ZA05171*/
         3 SMF47RVU CHAR(4),      /* RESERVED FOR USER       @ZA05171*/
         3 SMF47END CHAR(0);      /* END OF JES3 RECORD      @ZA05171*/
 /* SS06 SUBSYSTEM DATA                                      @Z40EPPF*/
    DCL 1 SMF47PCO BASED(ADDR(SMF47SBG)),
         3 SMF47LCF BIT(8),       /* LOGON CONDITION FLAG    @Z40EPPF*/
           5 SMF47UNL BIT(1),     /* USER NOT LOGGED OFF     @Z40EPPF*/
           5 SMF47RV1 BIT(1),     /* RESERVED                @Z40EPPF*/
           5 SMF47CWK BIT(1),     /* CONTINUE WORKSPACE EXISTED
                                     AT LOGON                @Z40EPPF*/
           5 SMF47RV2 BIT(2),     /* RESERVED                @Z40EPPF*/
           5 SMF47SPA BIT(1),     /* SERVICE PROGRAM ACCOUNT
                                     RECORD                  @Z40EPPF*/
           5 SMF47RV3 BIT(1),     /* RESERVED                @Z40EPPF*/
           5 SMF47ULK BIT(1),     /* USER LOCKED             @Z40EPPF*/
         3 SMF47UID CHAR(3),      /* USER ID                 @Z40EPPF*/
         3 SMF47LTC CHAR(1),      /* LIBRARY TYPE            @Z40EPPF*/
         3 SMF47PLI CHAR(3),      /* PROJECT LIB ID          @Z40EPPF*/
         3 SMF47JID CHAR(6),      /* JOB ENTRY ID CODE       @Z40EPPF*/
         3 SMF47LAA CHAR(1),      /* LANGUAGE ATTRIBUTE ASSIGNED
                                                             @Z40EPPF*/
         3 SMF47PCI CHAR(1),      /* PRIVILEGED CLASS INDICATORS
                                                             @Z40EPPF*/
         3 SMF47DSL FIXED(31),    /* DASD SPACE IN LIBRARY
                                     (1K UNITS)              @Z40EPPF*/
         3 SMF47DPL FIXED(31);    /* DASD SPACE PROJECT/PUBLIC
                                     LIBRARIES (1K UNITS)    @Z40EPPF*/
 %IFAL48: IF IFAR48='' %THEN %GOTO IFAL49;
    DCL 1 SMFRCD48 BASED(SMF48PTR) BDY(WORD),
 /* RECORD TYPE 48 - SUBSYSTEM EVENT STOP                            */
         3 SMF48LEN FIXED(15),    /* RDW RECORD LENGTH               */
         3 SMF48SEG FIXED(15),    /* RDW SEGMENT DESCRIPTOR          */
         3 SMF48FLG BIT(8),       /* OPERATING ENVIRONMENT           */
         3 SMF48RTY FIXED(8),     /* RECORD TYPE 48                  */
         3 SMF48TME FIXED(31) BDY(BYTE), /* TOD RECORD WRITTEN       */
         3 SMF48DTE CHAR(4),      /* DATE RECORD WRITTEN             */
         3 SMF48SID CHAR(4),      /* SYSTEM ID FROM INSTALLATION     */
                                  /* SUBSYSTEM IDENTIFICATION SECTION*/
         3 SMF48SBS FIXED(15),    /* SUBSYSTEM IDENTIFIER            */
                                  /* 2 JES2                          */
                                  /* 6 SS06                  @Z40EPPF*/
         3 SMF48RSV CHAR(2),      /* RESV                            */
         3 SMF48LRR PTR(15),      /* LGTH OF REMAINDER OF RECORD
                                     (NOT INCLUDING THIS FIELD)      */
         3 SMF48SBP CHAR(28),     /* SUBSYSTEM SECTION       @ZA05171*/
 /* JES2 AND JES3 COMMON SECTION                             @ZA05171*/
          5 SMF48EVT FIXED(15) BDY(BYTE), /* EVENT TYPE STARTING     */
            7 *        BIT(6),    /* RESERVED                @ZA05171*/
            7 SMF48CAN BIT(1),    /* LINE HAS SIGNED OFF     @ZA05171*/
            7 SMF48SOF BIT(1),    /* LINE CANCELLED BY OPER  @ZA05171*/
            7 *        BIT(8),    /* RESERVED                @ZA05171*/
          5 SMF48RV1 CHAR(2),     /* RESV                            */
          5 SMF48RMT CHAR(8),     /* REMOTE NAME                     */
          5 SMF48LIN CHAR(8),     /* LINE NAME                       */
          5 SMF48PSW CHAR(8),     /* PASSWORD                        */
        3 SMF48SBG CHAR(23),      /* JES2,JES3 UNCOMMON AREA @ZA05171*/
 /* JES2 SUBSYSTEM DATA                                      @ZA05171*/
          5 SMF48IO FIXED(31) BDY(BYTE), /* # EXCPS(NOT LINE REPEATS */
          5 SMF48NAK FIXED(31) BDY(BYTE), /* # NAKS TO WRITE TEXT    */
          5 SMF48DCK FIXED(31) BDY(BYTE), /* # DATA CHECKS TO RD TEXT*/
          5 SMF48OUT FIXED(31) BDY(BYTE), /* # TIME OUTS TO READ TEXT*/
          5 SMF48ERR FIXED(31) BDY(BYTE), /*SUM OF ALL OTHER LINE ERR*/
          5 SMF48LAA CHAR(3);     /* LINE ADAPTER ADDRESS FROM UCB   */
 /* JES3 SUBSYSTEM DATA                                      @ZA05171*/
  DCL 1 SMF48JS3 BASED(ADDR(SMF48SBG)),                    /*@ZA05171*/
        3 SMF48XCP CHAR(28),      /* EXCP COUNTS AND
                                     ERROR STATISTICS        @ZA05171*/
          5 SMF48TRN CHAR(4),     /* NO. OF TRANSMISSIONS    @ZA05171*/
          5 SMF48ERS CHAR(4),     /* NO. OF LINE ERRORS      @ZA05171*/
          5 SMF48TOT CHAR(2),     /* NO. OF TIME-OUTS        @ZA05171*/
          5 SMF48NKS CHAR(2),     /* NO. OF NAK RESPONSES TO
                                            WRITE            @ZA05171*/
          5 SMF48S0  CHAR(1),     /* NO. OF CMD. REJECTS     @ZA05171*/
          5 SMF48S1  CHAR(1),     /* NO. OF INTERVENTION REQ.@ZA05171*/
          5 SMF48S2  CHAR(1),     /* NO. OF BUS-OUT CHECKS   @ZA05171*/
          5 SMF48S3  CHAR(1),     /* NO. OF EQUIP. CHECKS    @ZA05171*/
          5 SMF48S4  CHAR(1),     /* NO. OF DATA CHECKS      @ZA05171*/
          5 SMF48S5  CHAR(1),     /* NO. OF DATA OVERRUNS    @ZA05171*/
          5 SMF48S6  CHAR(1),     /* NO. OF LOST DATA        @ZA05171*/
          5 SMF48USR CHAR(9),     /* RESERVED FOR USER       @ZA05171*/
        3 SMF48ADP CHAR(3),       /* LINE ADAPTER ADDRESS    @ZA05171*/
        3 SMF48RVJ CHAR(8),       /* RESERVED FOR JES3       @ZA05171*/
        3 SMF48RVU CHAR(4),       /* RESERVED FOR USER       @ZA05171*/
        3 SMF48END CHAR(0);       /* END OF JES3 RECORD      @ZA05171*/
 /* SS06 SUBSYSTEM DATA                                      @Z40EPPF*/
    DCL 1 SMF48PCO BASED(ADDR(SMF48SBP)),
         3 SMF48FLS BIT(8),        /* LOGOFF FLAGS           @ZA05171*/
           5 SMF48RPI BIT(1),      /* RECORD FOR PREVIOUS
                                      INCOMPLETE SECTION     @Z40EPPF*/
           5 SMF48CNI BIT(1),      /* CANCEL ISSUED          @Z40EPPF*/
           5 SMF48CWK BIT(1),      /* CONTINUE WORKSPACE SAVED
                                                             @Z40EPPF*/
           5 SMF48CPG BIT(1),      /* CONTINUE PURGED        @Z40EPPF*/
           5 SMF48HSI BIT(1),      /* HALT OR STOP ISSUED    @Z40EPPF*/
           5 SMF48SPA BIT(1),      /* SERVICE PROGRAM ACCOUNT RECORD
                                                             @Z40EPPF*/
           5 SMF48RV2 BIT(1),      /* RESERVED               @Z40EPPF*/
           5 SMF48ULK BIT(1),      /* USER LOCKED            @Z40EPPF*/
         3 SMF48UID CHAR(3),       /* USER ID                @Z40EPPF*/
         3 SMF48CPU FIXED(31),     /* CPU TIME               @Z40EPPF*/
         3 SMF48CNT FIXED(31),     /* CONNECT TIME (SECONDS) FOR
                                      THIS TERMINAL SESSION  @Z40EPPF*/
         3 SMF48CTH FIXED(31),     /* CONNECT TIME (SECONDS) FOR
                                      ATTACHED HARDCOPY DEV. @Z40EPPF*/
         3 SMF48VIR FIXED(31),     /* VIRTUAL STORAGE USED
                                      (THOUSANDS OF BYTE-SECONDS)
                                      DURING TERMINAL SESSION@Z40EPPF*/
         3 SMF48DIO FIXED(31),     /* DASD I/O COUNT FOR THIS
                                      TERMINAL SESSION       @Z40EPPF*/
         3 SMF48TIO FIXED(31),     /* TP I/O COUNTS DURING
                                      TERMINAL SESSION       @Z40EPPF*/
         3 SMF48DSL FIXED(31),     /* DASD SPACE IN THIS LIBRARY
                                      (IN 1K UNITS)          @Z40EPPF*/
         3 SMF48DSP FIXED(31),     /* DASD SPACE IN PROJECT/PUBLIC
                                      LIBRARIES (1K UNITS)   @Z40EPPF*/
         3 SMF48CPD FIXED(31),     /* CPU TIME TO DATE (HUNDREDTHS
                                      OF SECONDS             @Z40EPPF*/
         3 SMF48CTD FIXED(31),     /* CONNECT TIME TO DATE (SECS)
                                                             @Z40EPPF*/
         3 SMF48CDH FIXED(31),     /* CONNECT TIME FOR HARDCOPY
                                      DEVICE TO DATE (SECONDS)
                                                             @Z40EPPF*/
         3 SMF48VSD FIXED(31),     /* VIRT STORAGE USED TO DATE
                                      (THOUSANDS OF BYTE-SECONDS)
                                                             @Z40EPPF*/
         3 SMF48DID FIXED(31),     /* DASD I/O COUNTS TO DATE@Z40EPPF*/
         3 SMF48TID FIXED(31);     /* TP I/O COUNTS TO DATE  @Z40EPPF*/
 %IFAL49: IF IFAR49='' %THEN %GOTO IFAL50;                 /*@YL026WA*/
    DCL 1 SMFRCD49 BASED(SMF49PTR) BDY(WORD),              /*@YL026WA*/
 /* RECORD TYPE 49 - SUBSYSTEM INTEGRITY                     @YL02120*/
         3 SMF49LEN FIXED(15),    /* RDW RECORD LENGTH       @YL026WA*/
         3 SMF49SEG FIXED(15),    /* RDW SEGMENT DESCRIPTOR  @YL026WA*/
         3 SMF49FLG BIT(8),       /* OPERATING ENVIRONMENT   @YL026WA*/
         3 SMF49RTY FIXED(8),     /* RECORD TYPE 49          @YL026WA*/
         3 SMF49TME FIXED(31) BDY(BYTE), /* TOD REC WRITTEN  @YL026WA*/