*        %GOTO IFALRD;   /*
         MACRO
&NAME    IFASMFRC &RECTYPE
.* *                                                                  *
.* * MACMEAN IFASMFRC MEANS SYSTEM MANAGEMENT FACILITY RECORD MAPPING *
.* * MACCOMP Y-2 SC102/BL27P                                          *
.* * MACSTAT Y-2 73298/42020                                          *
.* * METHOD OF ACCESS                                                 *
.* *  PL/S - INCLUDE MACRO FROM LIBRARY                               *
.* *          EXAMPLE - %INCLUDE SYSLIB(IFASMFRC)                     *
.* *                                                                  *
.* *         THIS MACRO EXPANDS RECORDS 114-123                       *
.* *                                                                  *
.* *
.* THIS IS AN SMF MACRO WHICH BUILDS SMF RECORDS 114-123. THE REQUIRED
.* FORMAT IS -
.*
.*       IFASMFRC  &RECTYPE
.**********************************************************************
.E5      ANOP
         SPACE 3
         MNOTE 4,'&RECTYPE INVALID RECORD TYPE SPECIFIED'
.CONTB   ANOP
         MEXIT
         MEND      */
 %IFALRD: ;
