         MACRO
&NAME    IOSGEN &FUNC,&TABLE=,&UCB=,&REG=,&VAR=,&LINKR=
         GBLB  &IECIHDR                 HEADER SWITCH
         GBLB  &IECIFLG,&IECITP         FIRST TIME SWITCH
         GBLB  &IECIMNT,&IECIDET        FIRST TIME SWITCH
         GBLB  &IECILCH,&IECIRES        FIRST TIME SWITCH
         LCLC  &LABEL                   LABEL GENERATION
         LCLC  &FIELD                   UCB FIELD
         LCLC  &BIT,&INDEX              UCB EQUATE NAME
.*                                      OR BRANCH ENTRY (IECVGENA)
.*                                      OR TP ERRTAB
         AIF   ('&IECIHDR' EQ '1').IOSG010
&IECIHDR SETB  1                        SET HEADER SWITCH
*****************************************************************
*                                                               *
*             IOSGEN MACRO                                      *
*                                                               *
*        OS/VS2 RELEASE 2, 10/14/74, LEVEL=00                   *
*                                                               *
*        METHOD OF ACCESS                                       *
*              BAL - IOSGEN &FUNC,.....REQUIRED KEYWORDS        *
*              PLS - GEN REFS(....,....,MAPPING MACRO LABELS)   *
*                    (IOSGEN &FUNC,...REQUIRED KEYWORDS);       *
*                                                               *
*        THE MACRO FACILITIES OF IOSGEN ARE PROVIDED TO         *
*        SUPPORT FUNCTIONS WHICH REQUIRE A CHANGE TO OR         *
*        INFORMATION FROM THE RESOURCES WHICH GOVERN THE        *
*        CONTROL STRUCTURE OF THE I/O SUPERVISOR.  THESE        *
*        ARE NOT AN INTEGRAL PART OF IOS AND, THROUGH IOSGEN,   *
*        CAN REMAIN INDEPENDENT OF THE RESOURCE GOVERNING       *
*        STRUCTURE. IOSGEN IS A PRIVATE MACRO AVAILABLE         *
*        ONLY TO AUTHORIZED SYSTEM ROUTINES.                    *
*                                                               *
*****************************************************************
.IOSG010 ANOP
         AIF   ('&FUNC' EQ 'DETECTOR').DET000
         AIF   ('&FUNC' EQ 'DOM').DOM000
         AIF   ('&FUNC' EQ 'LCH').LCH000
         AIF   ('&FUNC' EQ 'MAP').MAP000
         AIF   ('&FUNC' EQ 'MOUNT').MNT000
         AIF   ('&FUNC' EQ 'PTHAVL').PTH000
         AIF   ('&FUNC' EQ 'RESTART').RES000
         AIF   ('&FUNC' EQ 'SIMINT').SIM000
         AIF   ('&FUNC' EQ 'SWAP').SWP000
         AIF   ('&FUNC' EQ 'TP').TP000
         AIF   ('&FUNC' EQ 'UCBFLG').FLG000
         AIF   ('&FUNC' EQ 'UCBLOOK').UCB000
         AIF   ('&FUNC' EQ 'VARY').VAR000
         AIF   ('&FUNC' EQ 'SETVOID').SV000                    @Y30LPLC
         AGO   .IOSGEN3
.*****     *****     *****     *****     *****     *****     *****
.*****      MAP      *****      MAP      *****      MAP      *****
.*****     *****     *****     *****     *****     *****     *****
.MAP000  ANOP
*
*    THE MAP FUNCTION HAS BEEN REPLACED BY THE IOSMAP MACRO    @G64APLK
*
         AGO   .IOSGEN3
.*****     *****     *****     *****     *****     *****     *****
.*****     PTHAVL    *****     PTHAVL    *****     PTHAVL    *****
.*****     *****     *****     *****     *****     *****     *****
.PTH000  ANOP
*
*        THE PTHAVL FUNCTION HAS BEEN DELETED.                 @G64APLK
*
         AGO   .IOSGEN3                                        @ZA12429
.*****     *****     *****     *****     *****     *****     *****
.*****    UCBLOOK    *****    UCBLOOK    *****    UCBLOOK    *****
.*****     *****     *****     *****     *****     *****     *****
.UCB000  ANOP
.*
.*       CSECT AUTHORIZATION
.*
         AIF   (('&SYSECT' EQ 'IQAALL00') OR                           X
               ('&SYSECT' EQ 'IQAERR00')).UCBAUTH
         AIF   ('&SYSECT' EQ 'IGC0005I').UCBAUTH
         AIF   ('&SYSECT' EQ 'IGC0905I').UCBAUTH
         AIF   ('&SYSECT' EQ 'IEEVDEV').UCBAUTH
         AIF   ('&SYSECT' EQ 'IEEVPTH').UCBAUTH
         AIF   ('&SYSECT' EQ 'IEAVNIP0').UCBAUTH
         AIF   ('&SYSECT' EQ 'IEAVNIPM').UCBAUTH
         AIF   ('&SYSECT' EQ 'WMMCCABE').UCBAUTH
         AIF   ('&SYSECT' EQ 'IEEMPDM').UCBAUTH
         AIF   ('&SYSECT' EQ 'IQASTK00').UCBAUTH
         AIF   ('&SYSECT' EQ 'ISTINMAV').UCBAUTH
         AIF   ('&SYSECT' EQ 'IEE3603D').UCBAUTH
         AIF   ('&SYSECT' EQ 'IGC0012F').UCBAUTH               @ZUP1085
        AIF   ('&SYSECT' EQ 'ICBVMT00').UCBAUTH               @ZA12429
.*       AGO   .IOSGEN1                                        @ZA12429
.UCBAUTH ANOP
         SPACE 2
*****************************************************************
*                                                               *
* FUNCTION:                                                     *
*    UCBLOOK - LOCATES THE UNIT CONTROL BLOCK (UCB) ASSO-       *
*    CIATED WITH A DEVICE ADDRESS.                              *
*                                                               *
* MACRO CALL:                                                   *
*    LABEL  IOSGEN  UCBLOOK,UCB=(REG),REG=(REG)                 *
*                                                               *
*       PLS - GEN REFS(CVTILK1,CVTILK2,CVTIXAVL,CVTMAP,         *
*             IOCOMEX,CVTPTR,IOCOM,IOX,IOCUCBBM,IOXHICH)       @YM06032
*             (IOSGEN UCBLOOK,...KEYWORDS AS IN BAL);           *
*                                                               *
* INPUT:                                                        *
*    REGISTER 13 MUST CONTAIN THE ADDRESS OF A 16 WORD          *
*    SAVEAREA.                                                  *
*                                                               *
*    REGISTER 15 WILL BE USED AS A BASE REGISTER AND, AS        *
*    SUCH, USING AND DROP STATEMENTS ARE ISSUED.  IF THE        *
*    CALLING MODULE IS USING REGISTER 15 AS A BASE, IT MUST     *
*    REESTABLISH ADDRESSABILITY BY ISSUING ANOTHER USING        *
*    STATEMENT.                                                 *
*                                                               *
*    UCB=  MAY SPECIFY A GPR (SYMBOLIC OR ABSOLUTE), WHICH      *
*    IS TO CONTAIN THE ADDRESS OF THE UCB COMMON SEGMENT UPON   *
*    RETURN TO THE CALLER. IF OMITTED, REGISTER 7 IS ASSUMMED.  *
*                                                               *
*    REG=  MAY SPECIFY A GPR (SYMBOLIC OR ABSOLUTE) WHICH       *
*    WILL CONTAIN THE HEXIDECIMAL DEVICE ADDRESS; RIGHT         *
*    JUSTIFIED.  IF THIS PARAMETER IS OMITTED, REGISTER 6 IS    *
*    ASSUMED.                                                   *
*                                                               *
*    LABEL - OPTIONAL LABEL.                                    *
*                                                               *
* OUTPUT:                                                       *
*                                                               *
*    UCB=  CONTAINS THE ADDRESS OF THE UCB.                     *
*                                                               *
*    REGISTER 15 WILL CONTAIN ONE OF THE FOLLOWING RETURN CODES:*
*         00=  UCB ADDRESS HAS BEEN FOUND                       *
*         04=  DEVICE ADDRESS WAS INVALID                       *
*                                                               *
* ATTRIBUTES:                                                   *
*    THIS FUNCTION IS EXPANDED AS RE-ENTRANT, IN-LINE CODE.     *
*                                                               *
* OTHER:                                                        *
*    THE EXPANSION OF THIS FUNCTION IS DEPENDENT ON THE         *
*    SPECIFICATION OF THE FOLLOWING MAPPING MACROS              *
*    IN THE CALLING CSECT ASSEMBLY:                             *
*         CVT   DSECT=YES                                       *
*         IECDIOCM                                              *
*         IECDIOCX                                            @YM03330*
*                                                               *
*    LOCKS ARE NOT REQUIRED BY THIS FUNCTION.                   *
*                                                               *
*****************************************************************
         SPACE 2
*****************************************************************
*                                                               *
*        REGISTER DEFINITIONS                                   *
*                                                               *
*****************************************************************
         SPACE
IECIUZRO EQU   0                   RESERVED
*        EQU   1                   RESERVED
IECIUWK2 EQU   2                   EVEN WORK REG
IECIUWK3 EQU   3                   ODD WORK REG
IECIUCVT EQU   4                   CVT PTR
IECIULST EQU   5                   CHAN AND UCB LIST PTR
IECIUEVN EQU   6                   EVEN WORK REG
IECIUODD EQU   7                   ODD WORK REG
IECIUNDX EQU   8                   TABLE INDEX REG
*        EQU   9                   RESERVED
*        EQU   10                  RESERVED
*        EQU   11                  RESERVED
*        EQU   12                  RESERVED
IECIUSAV EQU   13                  SAVE AREA PTR
*        EQU   14                  RESERVED
IECIUBAS EQU   15                  BASE REG
         SPACE
*****************************************************************
*                                                               *
*        MISCELLANEOUS EQUATES                                  *
*                                                               *
*****************************************************************
         SPACE
IECIURC4 EQU   4                   RETURN CODE OF 4
IECIUMBM EQU   128                 MOVING BIT MASK
IECIUB16 EQU   16                  NO. OF BITS FOR SHIFTS      @YM06032
IECIUDNM EQU   X'0F'               DEVICE NUMBER MASK
         AIF   ('&UCB' NE '').UCB010
IECIUUCB EQU   28                  OFFSET IN SAVE AREA FOR REG 7
*                                  *WHICH WILL CONTAIN ADDR OF
*                                  *VALID UCB
.UCB010  ANOP
IECIURTC EQU   60                  OFFSET FOR REG 15 IN SAVEAREA
*                                  *WHICH WILL CONTAIN
*                                  *RETURN CODE
         SPACE
*****************************************************************
*                                                               *
*        ESTABLISH ADDRESSABILITY                               *
*                                                               *
*****************************************************************
         SPACE
&NAME    STM   IECIUZRO,IECIUBAS,0(IECIUSAV)  SAVE REGS
         BALR  IECIUBAS,0          EST ADDRESSABILITY
         USING *,IECIUBAS
         SPACE
         AIF   ('&REG' EQ '').UCB030
         LR    IECIUEVN,&REG(1)    GET DEVICE ADDR FROM CALLER
.UCB030  ANOP
         SPACE
****************************************************************
*                                                              *
*        VALIDATE UCB DEVICE ADDRESS                           *
*                                                              *
****************************************************************
         SPACE
         SR    IECIUODD,IECIUODD   ZERO WORK REGISTER          @YM06032
         SRDL  IECIUEVN,IECIUB16   ISOLATE DEVICE ADDRESS      @YM06032
         LTR   IECIUEVN,IECIUEVN   ANYTHING IN HI BYTES-INVALID@YM06032
         BNZ   IECIU070            YES, TAKE ERROR EXIT        @YM06032
         SPACE
         SLDL  IECIUEVN,IECIUB16   RESTORE DEVICE ADDRESS      @YM06032
         SPACE
         L     IECIUCVT,CVTPTR(0,0)  GET CVT PTR
         L     IECIULST,CVTIXAVL-CVTMAP(0,IECIUCVT)  GET IOCOM PTR
         L     IECIUWK2,IOCOMEX-IOCOM(0,IECIULST) GET IOX PTR
         SPACE
         CLM   IECIUEVN,2,IOXHICH-IOX(IECIUWK2) IS CHAN VALID? @YM06032
         BH    IECIU070            NO, TAKE ERROR EXIT
         SPACE
         LR    IECIUWK2,IECIUEVN   COPY DEVICE ADDR
         L     IECIULST,IOCUCBBM-IOCOM(0,IECIULST) GET UCB
*                                  *BIT MASK TABLE ADDR
         SRDL  IECIUWK2,3(0)       CREATE TABLE AND BIT INDICES
         SRL   IECIUWK3,29(0)      ALIGN BIT INDEX
         IC    IECIUWK2,0(IECIUWK2,IECIULST) GET BYTE
*                                  *WITH DEVICE BIT
         LA    IECIULST,IECIUMBM(0,0) GET MOVING BIT MASK
         SRL   IECIULST,0(IECIUWK3) CREATE DEVICE MASK
         SPACE
         NR    IECIUWK2,IECIULST   AND OUT ALL BUT DEVICE BIT
         BZ    IECIU070            INVALID DEVICE ADDRESS
         SPACE
*****************************************************************
*                                                               *
*        ISOLATE DEVICE NUMBER, CHANNEL ADDRESS AND             *
*              CONTROL UNIT ADDRESS                             *
*                                                               *
*****************************************************************
         SPACE
         LA    IECIUNDX,IECIUDNM(0,0)  GET DEVICE NUMBER MASK
         NR    IECIUNDX,IECIUEVN   ISOLATE DEVICE NUMBER
         SRDL  IECIUEVN,8(0)       SEPARATE CHANNEL AND
*                                  *CONTROL UNIT ADDRESSES
*                                  *IN EVEN/ODD REGS
         SRL   IECIUODD,28(0)      ISOLATE CONTROL UNIT
         SPACE
*****************************************************************
*                                                               *
*        GO TO CHANNEL TABLE AND CALCULATE CONTROL UNIT INDEX   *
*        CALCULATE UCB TABLE INDEX AND OBTAIN UCB TABLE PTR     *
*                                                               *
*****************************************************************
         SPACE
         L     IECIULST,CVTILK1-CVTMAP(0,IECIUCVT)  GET CHANNEL
*                                  *TABLE PTR
         IC    IECIUEVN,0(IECIUEVN,IECIULST)  GET CHAN INDEX
         SPACE
         ALR   IECIUEVN,IECIUODD   ADD CHAN INDEX TO CU ADDR   @ZA08721
         SPACE
         ALR   IECIUEVN,IECIUEVN   GET 2 * THIS VALUE          @ZA08721
*                                  *TO GET CONTROL UNIT INDEX
         AH    IECIUNDX,0(IECIUEVN,IECIULST) ADD CU INDEX TO
*                                  *CU NO.
         SPACE
         ALR   IECIUNDX,IECIUNDX   DOUBLE CU INDEX
*                                  *TO GET UCB PTR INDEX
         L     IECIULST,CVTILK2-CVTMAP(0,IECIUCVT)  GET DEVICE
*                                  *LIST PTR--START OF LIST
         LH    IECIUODD,0(IECIUNDX,IECIULST)  GET UCB PTR
         N     IECIUODD,IECIUMSK   AND OFF ANY PROPAGATED BITS @Z30AALB
         SPACE
*****************************************************************
*                                                               *
*        SET RETURN CODE EQUAL TO ZERO, AND SET UCB ADDRESS     *
*                                                               *
*****************************************************************
         SPACE
         SLR   IECIUNDX,IECIUNDX   SET RETURN CODE =0
         ST    IECIUNDX,IECIURTC(0,IECIUSAV)  STORE RETURN CODE
*                                  *IN REG 15 REG SAVE
         AIF   ('&UCB' EQ '').UCB040
         LA    IECIUNDX,&UCB(1).(0,0)   GET REG VALUE
         SLL   IECIUNDX,2(0)  REG VALUE * 4 = INDEX
         ST    IECIUODD,0(IECIUNDX,IECIUSAV)  SET UCB ADDR
         AGO   .UCB050
.UCB040  ANOP
         ST    IECIUODD,IECIUUCB(0,IECIUSAV) SET UCB ADDR
.UCB050  ANOP
         B     IECIUXIT            GO RESTORE REGS
         SPACE
***********************************************************************
*                                                                     *
*        CONSTANT FOR UCBLOOK FUNCTION, LOCATED HERE TO ALLEVIATE AN  *
*        EXTRA BRANCH INSTRUCTION AROUND IT.                          *
*                                                                     *
***********************************************************************
         SPACE
         DS    0F                  PERFORMANCE BOUNDRY         @Z30AALB
IECIUMSK DC    X'0000FFFF'         AND MASK FOR UCB ADDRESS    @Z30AALB
         SPACE
*****************************************************************
*                                                               *
*    INVALID DEVICE ADDRESS.  SET RETURN CODE EQUAL TO FOUR.    *
*                                                               *
*****************************************************************
         SPACE
IECIU070 LA    IECIUNDX,IECIURC4(0,0)   SET RETURN CODE =4
         ST    IECIUNDX,IECIURTC(0,IECIUSAV)  STORE IN REG 15
*                                  *SAVE AREA
         SPACE
*****************************************************************
*                                                               *
*        RESTORE REGISTERS AND RETURN INLINE TO CALLER          *
*                                                               *
*****************************************************************
         SPACE
IECIUXIT LM    IECIUZRO,IECIUBAS,0(IECIUSAV)  RESTORE REGS
*                                  *REG 15 LOADS RETURN CODE
         DROP  IECIUBAS
         MEXIT
.*****     *****     *****     *****     *****     *****     *****
.*****     UCBFLG    *****     UCBFLG    *****     UCBFLG    *****
.*****     *****     *****     *****     *****     *****     *****
.FLG000  ANOP
.*
.*       CSECT AUTHORIZATION
.*
         AIF   ('&SYSECT' EQ 'IGE0025C').FLGAUTH
         AIF   ('&SYSECT' EQ 'IEFAB494').FLGAUTH
         AIF   ('&SYSECT' EQ 'IGC0005I').FLGAUTH
         AIF   ('&SYSECT' EQ 'IGC0905I').FLGAUTH
         AIF   ('&SYSECT' EQ 'IEC1052').FLGAUTH
         AIF   ('&SYSECT' EQ 'IFG0193B').FLGAUTH
         AIF   ('&SYSECT' EQ 'IFG0194J').FLGAUTH
         AIF   ('&SYSECT' EQ 'IFG0202G').FLGAUTH
         AIF   ('&SYSECT' EQ 'IEEVCPU').FLGAUTH
         AIF   ('&SYSECT' EQ 'AMDSAUCB').FLGAUTH
         AIF   ('&SYSECT' EQ 'IECVIOPM').FLGAUTH
         AIF   ('&SYSECT' EQ 'WMMCCABE').FLGAUTH
         AIF   ('&SYSECT' EQ 'IGG0290F').FLGAUTH
         AIF   ('&SYSECT' EQ 'IGG0191A').FLGAUTH
         AIF   ('&SYSECT' EQ 'IGE0100I').FLGAUTH
         AIF   ('&SYSECT' EQ 'IGFTMC00').FLGAUTH               @Z40WPLP
         AIF   ('&SYSECT' EQ 'IGFTMCHK').FLGAUTH
         AIF   ('&SYSECT' EQ 'IGFDM1').FLGAUTH
         AIF   ('&SYSECT' EQ 'IGFDI1').FLGAUTH
         AIF   ('&SYSECT' EQ 'ER3890').FLGAUTH
         AIF   ('&SYSECT' EQ 'IGG019S1').FLGAUTH
         AIF   ('&SYSECT' EQ 'IGG0197D').FLGAUTH
         AIF   ('&SYSECT' EQ 'IGG019V5').FLGAUTH
         AIF   ('&SYSECT' EQ 'IATSSDI').FLGAUTH JES3 CTC      @Z40WPLD
         AIF   ('&SYSECT' EQ 'IATMSIO').FLGAUTH
         AIF   ('&SYSECT' EQ 'IATGRCT').FLGAUTH                @ZM34513
         AIF   ('&SYSECT' EQ 'IECTCATN').FLGAUTH
         AIF   ('&SYSECT' EQ 'IGG019S3').FLGAUTH               @ED030LD
         AIF   ('&SYSECT' EQ 'IGE0001H').FLGAUTH               @Y30LB16
         AIF   ('&SYSECT' EQ 'IEE3103D').FLGAUTH
         AIF   ('&SYSECT' EQ 'IEFAB488').FLGAUTH               @ZA06075
         AIF   ('&SYSECT' EQ 'IGFDE1').FLGAUTH                 @ZA12429
         AIF   ('&SYSECT' EQ 'IGE0002E').FLGAUTH               @ZA11845
         AIF   ('&SYSECT' EQ 'IGE0003C').FLGAUTH
         AIF   ('&SYSECT' EQ 'IGTUJA').FLGAUTH
.*       AGO   .IOSGEN1                                        @ZA12429
.FLGAUTH ANOP
.*
.*       CHECK FOR MISSING AND INVALID PARAMETERS
.*
         AIF   ('&UCB' EQ '').IOSGEN3   REQUIRED KEYWORD
         AIF   (('&TABLE' EQ 'UCBACTV') OR ('&TABLE' EQ 'UCBBSY') OR   X
               ('&TABLE' EQ 'UCBPSNS') OR ('&TABLE' EQ 'UCBNRY') OR    X
               ('&TABLE' EQ 'UCBTICBT')).FLG005
         AIF   (('&TABLE' EQ 'UCBDDRSW') OR ('&TABLE' EQ 'UCBQISCE')   X
               OR ('&TABLE' EQ 'UCBIVRR') OR ('&TABLE' EQ 'UCBIVRS')   X
               OR ('&TABLE' EQ '')).FLG005
         AIF   ('&TABLE' EQ 'UCBPMSK').FLG005
         AIF   ('&TABLE' EQ 'UCBIORST').FLG005
         AIF   ('&TABLE' EQ 'UCBITF').FLG005
         AIF   ('&TABLE' EQ 'UCBRVRS').FLG005                  @OZ03863
         AGO   .IOSGEN3
.FLG005  ANOP
         AIF   (('&TABLE' EQ 'UCBPMSK') AND (N'&REG LT 2)).IOSGEN2
         AIF   (('&VAR' NE 'ON') AND ('&VAR' NE 'OFF') AND             X
               ('&VAR' NE 'TEST') AND ('&VAR' NE '')).IOSGEN4
         AIF   ('&TABLE' EQ 'UCBPMSK').FLG007
         AIF   ('&TABLE' EQ 'UCBIORST').FLG007
         AIF   ('&TABLE' EQ 'UCBITF').FLG007
         AIF   (('&REG' NE 'COND') AND ('&REG' NE 'UNCOND') AND        X
               ('&REG' NE '')).IOSGEN3
         AIF   ('&TABLE' EQ 'UCBRVRS').FLG007                  @ZA35584
         AIF   ((('&REG' EQ 'COND') OR ('&REG' EQ 'UNCOND')) AND       X
               ('&TABLE' NE 'UCBNRY')).IOSGEN3
         AIF   ((('&TABLE' EQ 'UCBACTV') OR ('&TABLE' EQ 'UCBBSY')     X
               OR ('&TABLE' EQ 'UCBPSNS')) AND (('&VAR' NE 'TEST')     X
               AND ('&VAR' NE ''))).IOSGEN4
.FLG007  ANOP
         AIF   ('&IECIFLG' EQ '1').FLG010    ONE CALL ONLY
&IECIFLG SETB  1                        SET FIRST TIME SWITCH
         SPACE 2
*****************************************************************
*                                                               *
* FUNCTION:                                                     *
*    UCBFLG - TESTS, SETS OR RESETS SELECTED STATUS             *
*             INDICATORS IN THE UCB.                            *
*                                                               *
* MACRO CALL:                                                   *
*    LABEL  IOSGEN  UCBFLG,UCB=(REG),VAR=ON OR OFF OR TEST,     *
*                   TABLE=UCBBITNAME,REG=COND OR UNCOND OR      *
*                   (REG1,REG2)                                 *
*                                                               *
*         PLS - GEN REFS(UCBFLA,UCBFLB,UCBFLC,CVTPTR,           *
*               CVTIXAVL,IOCGENA,UCBOB,UCBCCWOF,UCB3TAPE,       *
*               CVTMAP,IOCOM,UCBCMEXT,UCBEXTPT)                 *
*               (IOSGEN UCBFLG,...KEYWORDS AS IN BAL);          *
*         NOTE:  %DEACT OFF; MUST FOLLOW INCLUDE STATEMENTS     *
*                FOR VAR=OFF.                                   *
*         NOTE:  THE ABOVE REPRESENT THE MAXIMUM REFERENCES     *
*                REQUIRED.                                      *
*                                                               *
*    SPECIAL TAPE OPTION:                                       *
*         LABEL  IOSGEN  UCBFLG,UCB=(REG)                       *
*                                                               *
*    SPECIAL UCBPMSK OPTION:                                    *
*         LABEL  IOSGEN  UCBFLG,UCB=(REG),TABLE=UCBPMSK,        *
*                        REG=(REG1,REG2)                        *
*                                                               *
* INPUT:                                                        *
*    REGISTER 13 MUST CONTAIN THE ADDRESS OF 16 WORD SAVEAREA   *
*    FOR THE 'ON' OR 'OFF' OPTIONS AND SPECIAL TAPE OPTION.     *
*                                                               *
*    UCB=  MUST SPECIFY A GPR (ABSOLUTE OR SYMBOLIC) CONTAINING *
*    THE ADDRESS OF THE UCB REPRESENTING THE DEVICE FOR WHICH   *
*    THE FUNCTION IS DIRECTED.  THIS GPR MUST POINT TO THE      *
*    UCB COMMON SEGMENT. FOR MULTIPLE EXPOSURE DEVICES,         *
*    IECVGENA WILL ACQUIRE THE UCB LOCK FROM THE BASE UCB       *
*    AND WILL USE THE ADDRESS IN THIS PARAMETER  TO             *
*    PERFORM THE REQUESTED OPERATION.                           *
*                                                               *
*    VAR=  INDICATES THE TYPE OF ACTION TO BE PERFORMED.        *
*         ON - THE DESIGNATED INDICATOR IS TO BE TURNED ON.     *
*         OFF - THE DESIGNATED INDICATOR IS TO BE TURNED OFF.   *
*         TEST - (DEFAULT) THE DESIGNATED INDICATOR IS TO       *
*                BE TESTED.                                     *
*                                                               *
*    TABLE=  SPECIFIES THE SYMBOLIC NAME OF THE INDICATOR TO    *
*    BE TESTED, SET, OR RESET.  THE FOLLOWING SYMBOLS ARE       *
*    SUPPORTED:                                                 *
*         UCBACTV  - CHANNEL END IS OUTSTANDING ('TEST' ONLY).  *
*         UCBBSY   - DEVICE END IS OUTSTANDING ('TEST' ONLY).   *
*         UCBPSNS  - A SENSE OPERATION IS EITHER PENDING OR     *
*                    ACTIVE ('TEST' ONLY).                      *
*         UCBNRY   - THE DEVICE IS NOT READY.                   *
*         UCBTICBT - A CHANNEL END OR DEVICE END INTERRUPT      *
*                    HAS BEEN SOLICITED FROM THE DEVICE AND IS  *
*                    CURRENTLY OUTSTANDING.                     *
*         UCBDDRSW - A VOLUME SWITCH (DYNAMIC DEVICE            *
*                    RECONFIGURATION) IS PENDING ON THIS DEVICE.*
*         UCBQISCE - A COMPONENT HAS INHIBITED FURTHER I/O FROM *
*                    BEING INITIATED TO A DEVICE EXCEPT I/O     *
*                    REQUESTS FROM THAT COMPONENT.              *
*         UCBIVRS  - INTERVENTION REQUIRED MESSAGE HAS BEEN SENT*
*         UCBIVRR  - INTERVENTION REQUIRED MESSAGE IS NEEDED.   *
*         UCBPMSK  - RESETS THE PATH MASK FOR MESSAGES ISSUED.  *
*         UCBIORST - I/O RESTART DEVICE NON-ACCESSABLE.         *
*         UCBITF - INTERCEPT CONDITION.                         *
*         UCBRVRS - NOTREADY AND INTERVENTION MSG       @OZ03863*
*                    SENT.                                      *
*                                                               *
*    REG=  APPLIES TO UCBNRY ('ON' ONLY), UCBPMSK OR           @ZA35584
*                     UCBRVRS                                  @ZA35584
*         COND   - (DEFAULT) IMPLIES THAT THE NOT READY STATUS  *
*                   IS TO BE SET ONLY IF AN UNSOLICITED DEVICE  *
*                   END HAS NOT OCCURED SINCE THE LAST SIO      *
*                   WAS ISSUED.                                 *
*         UNCOND - IMPLIES SETTING THE INDICATOR REGARDLESS OF  *
*                  THE INTERRUPT STATUS.                        *
*         (REG1,REG2) - GENERAL REGISTERS USED FOR              *
*                  COMPARE AND SWAP INSTRUCTION.                *
*                                                               *
*    LABEL  OPTIONAL LABEL PARAMETER.                           *
*                                                               *
*    OPTIONAL TAPE OPTION - THE STATUS INDICATORS 'NOT READY'   *
*    AND 'INTERCEPT CONDITION' ARE SET OFF.  THIS CALL IS VALID *
*    ONLY FOR A TAPE DEVICE AND IF BOTH THE STATUS INDICATORS   *
*    ARE ALREADY SET ON.  THE 16 WORD SAVE AREA IS REQUIRED FOR *
*    THIS EXPANSION.  TO RESET AN INTERCEPT CONDITION, I/O      *
*    SUPERVISOR RESOURCES ALLOCATED TO MAINTAIN THE STATUS OF   *
*    THE INTERRUPT MUST BE RELEASED.                            *
*                                                               *
* OUTPUT:                                                       *
*    TEST OPTION - THE CONDITION CODE OF ZERO INDICATES THE     *
*    INDICATOR IS TURNED OFF.                                   *
*                                                               *
* EXTERNAL ROUTINES:                                            *
*    IECVGENA - RESIDENT IOSGEN SUBROUTINE. THIS MODULE IS      *
*    ENTERED VIA A BAL INSTRUCTION FOR ALL CONDITIONS EXCEPT    *
*    'TEST' AND THE RESET OF UCBPMSK.                           *
*                                                               *
* ATTRIBUTES:                                                   *
*    THE UCBFLG FUNCTION IS EXPANDED AS IN-LINE, REENTRANT      *
*    CODE AND MAY BE EXPANDED A VARIABLE NUMBER OF TIMES        *
*    WITHIN THE SAME ASSEMBLY WITHOUT DUPLICATING SYMBOLS.      *
*                                                               *
* OTHER:                                                        *
*    A RESET OF THE 'UCBQISE' INDICATOR WILL ALSO CAUSE         *
*    THE DEVICE TO BE RESTARTED BY THE I/O SUPERVISOR           *
*    THE NEXT TIME ENTERED.                                     *
*                                                               *
*    THE FOLLOWING MAPPING MACRO ARE REQUIRED:                  *
*         IEFUCBOB              (TEST ONLY)                     *
*         CVT   DSECT=YES       (ON & OFF ONLY)                 *
*         IECDIOCM              (ON & OFF ONLY)                 *
*                                                               *
*    LOCKS ARE NOT REQUIRED BY THIS FUNCTION.                   *
*                                                               *
*****************************************************************
         SPACE 2
*****************************************************************
*                                                               *
*        REGISTER EQUATES                                       *
*                                                               *
*****************************************************************
         SPACE
IECIFGR0 EQU   0                   UCB PREFIX OFFSET REG
IECIFUCB EQU   4                   UCB PTR
IECIFVAR EQU   5                   VARIATION VALUE REG
*                                  *APPLIES TO NORMAL REQUESTS
IECIFSAV EQU   13                  SAVE AREA PTR
IECIFRTN EQU   14                  RETURN REG FROM IECVGENA
IECIFBRR EQU   15                  BRANCH REG TO IECVGENA
         SPACE
*****************************************************************
*                                                               *
*        UCB - UNIT CONTROL BLOCK                               *