         MACRO
&NAME    PURGE &LIST
         AIF   ('&LIST' EQ '').E1
&NAME    IHBINNRA &LIST                     LOAD REG 1
         SVC   16                                ISSUE SVC FOR PURGE
         MEXIT
.E1      IHBERMAC 01,147                    LIST ADDR MISSING
         MEND
