         MACRO
&NAME    $ERROR    &ERCD,&RET,&SAVE                                V1L5
         GBLA      &ERROR#
         LCLC      &P4,&P5
         LCLA      &X
         LCLC      &Y
&ERROR#  SETA      &ERROR#+1
&P4      SETC      '&ERCD(4)'
&P5      SETC      '&ERCD(5)'
&NAME    DC        0H'0'
         AIF       (T'&SAVE EQ 'O').NOSAV
         AIF       ('&SYSLIST(3)'(1,4) EQ 'SAVE').SAVOK
         MNOTE '*** INVALID SAVE PARAMETER ***'
.SAVOK   ANOP
.*   SAVE REGISTERS IN LINE
.*  USE XERRENT1 IF ERRCODE IN-LINE (I.E. AT 0(R14))
.* USE XERRENT2 IF ERRCODE OUT OF LINE (I.E. AT 0(R1))
         STM       R0,R15,XHELPS
         AIF       (T'&ERCD EQ 'O').NOCD
         BAL       R14,XERRENT1
         ERRCODE   (&ERCD(1),&ERCD(2),&ERCD(3),&P4,&P5,&ERCD(6))
         AGO       .LDREG
.NOCD    ANOP
         BAL       R14,XERRENT2
.LDREG   LM        R0,R15,XHELPS
         AIF       ('&RET' NE 'DONE' AND '&RET' NE 'LOOP').TRYAGN
         BR        R&RET
         MEXIT
.TRYAGN  ANOP
&X       SETA      1
.LKKX1   ANOP
&Y       SETC      '&X'
         AIF       ('&RET' EQ 'R&Y').LKKX2
.AXIS14  ANOP
&X       SETA      &X+1
         AIF       (&X GT 15).CHKRET
         AIF       (&X EQ 14).AXIS14
         AGO       .LKKX1
.LKKX2   BR        &RET
         MEXIT
.NOSAV   AIF       (T'&ERCD EQ 'O').NOCD1
.*  SAVE REGISTERS AT ERROR EDITOR
.* USE XERRENT3 IF ERRCODE IS IN-LINE (I.E. AT 0(R14))
.* USE XERRENT4 IF ERRCODE IS OUT OF LINE (I.E. AT 0(R1))
         AIF       ('&RET' EQ 'DONE').DONE
&X       SETA      1
.LKKA1   ANOP
&Y       SETC      '&X'
         AIF       ('&RET' EQ 'R&Y').LKKA2
.BXIS14  ANOP
&X       SETA      &X+1
         AIF       (&X GT 15).NXT
         AIF       (&X EQ 14).BXIS14
         AGO       .LKKA1
.NXT     ANOP
         AIF       ('&RET' NE 'LOOP').REG14
         LR        R14,R11
.DONE    ANOP
         BAL       R1,XERRENT4
         ERRCODE   (&ERCD(1),&ERCD(2),&ERCD(3),&P4,&P5,&ERCD(6))
         MEXIT
.LKKA2   LR        R14,&RET
         AGO       .DONE
.REG14   ANOP
         BAL       R14,XERRENT3
         ERRCODE   (&ERCD(1),&ERCD(2),&ERCD(3),&P4,&P5,&ERCD(6))
         AGO       .CHKRET
.NOCD1   ANOP
         BAL       R14,XERRENT4
.CHKRET  AIF       (T'&RET EQ 'O').END
         B         &RET
.END     ANOP
         MEND
