         MACRO
&NAME $EXIT &TY
 LCLA &AL1
* SUPVR COMMN MACROS - EXIT - 5745-SC-SUP - REL. 28.0
         AIF   (T'&TY EQ 'O').MIS
         AIF   ('&TY' EQ 'OC').OC
         AIF   ('&TY' EQ 'IT').IT
         AIF   ('&TY' EQ 'PC').PC
         AIF   ('&TY' EQ 'MR').MR
         MNOTE 5,'TYPE INVALID - MACRO IGNORED'
         MEXIT
.MR      ANOP
&AL1     SETA  &AL1+7
.OC      ANOP
&AL1     SETA  &AL1+2
.IT      ANOP
&AL1     SETA  &AL1+2
.PC      ANOP
&AL1     SETA  &AL1+17
&NAME    SVC   &AL1
         MEXIT
.MIS     ANOP
         MNOTE 5,'OPERAND OMITTED - MACRO IGNORED'
         MEND
