         MACRO
&NAME    $FLIST1   &FN,&MODE
         GBLC      &STATUS,&TEST
         LCLC      &TN
&TN      SETC      '&FN'.'     '
&TN      SETC      '&TN'(1,6)
&TEST    SETC      '&TN'
         STATUS    &FN
         AIF       ('&STATUS'(1,4) NE 'CORE').END
         ADDLIST   &FN,&MODE
.END     MEND
