         MACRO
&NAME    ARG       &ARG,&MODE
&NAME    DC        AL1(SIMPLVAL+&MODE),AL3(&ARG)                   V1L4
         MEND
