         MACRO
         ASTATLIS
         GBLC      &FNAME(255),&FSTATUS(255),&FMODE(255)
         GBLA      &IND1
         LCLA      &N
         LCLC      &NAME                                           V1L4
&N       SETA      1
         MNOTE     0,'  THE STATUS OF EACH SUBPROGRAMME IS AS FOLLOWS'
.LIST    ANOP
&NAME    SETC      '&FNAME(&N)'.'       '                          V1L4
&NAME    SETC      '&NAME'(1,6)                                    V1L4
         MNOTE     *,'   &NAME    &FMODE(&N)     '                 V1L4
&N       SETA      &N+1
         AIF       (&N LT &IND1).LIST
         MEND
