         MACRO
&NAME    BB        &A,&B
         AIF       ('&B'EQ'').XXX
&NAME    DC        0H'0',AL4(&A-&B)
         AGO       .YYY
.XXX     ANOP
&NAME    DC        0H'0',AL4(&A-XIOBASE)
.YYY     ANOP
         ORG       *-4
         DC        X'47FF'
         ORG       *+2
         MEND
