         MACRO
&NAME    BER       &REG
&NAME    BCR       8,&REG
         MEND
