         MACRO
&NAME    BHR       &REG
&NAME    BCR       2,&REG
         MEND
