         MACRO
&NAME    BLR       &REG
&NAME    BCR       4,&REG
         MEND
