         MACRO
&NAME    BNER      &REG
&NAME    BCR       7,&REG
         MEND
