         MACRO
&NAME    BNEW      &LABEL
&NAME    BE        &LABEL
         MEND
