         MACRO
&NAME    BNHR      &R
&NAME    BCR       13,&R
         MEND
