         MACRO
&NAME    BNLCR     &REG
&NAME    BCR       12,&REG
.*   BRANCH NOT LOGICAL CARRY TO &REG
.*   CONDITION CODE SET BY PREVIOUS  LOGICAL ADD OR SUBTRACT
         MEND
