         MACRO
&NAME    BNOR      &REG
&NAME    BCR       14,&REG
         MEND
