         MACRO
&NAME    BNPR      &REG
&NAME    BCR       13,&REG
         MEND
