         MACRO
&NAME    BOLD      &LABEL
&NAME    BNE       &LABEL
         MEND
