         MACRO
&NAME    BPR       &REG
&NAME    BCR       2,&REG
         MEND
