         MACRO
&NAME    BZR       &REG
&NAME    BCR       8,&REG
         MEND
