         MACRO
&NAME    CALLDCL   &DNAME,&LEVEL
         CNOP      2,4
         USING     *,R15
&NAME    L     R4,=V(XC@LDC)                                       V1L4
          BALR     R15,R4
         DROP      R15                                             V1L4
         DC        CL8'&NAME'
         DC    A(&DNAME)                                           V1L4
         MEND
