         MACRO
&NAME    CALLDUBL  &DNAME
         LCLA      &M
&M       SETA      N'&SYSLIST-1
         CNOP      2,4
         USING     *,R15
&NAME    L     R4,=V(XC@LD&M)                                      V1L4
         BALR      R15,R4
         DROP      R15                                             V1L4
         DC        CL8'&NAME'
         DC    A(&DNAME)                                           V1L4
         MEND
