         MACRO
&NAME    CHCKA     &ADDR,&MODE,&VL                                 V1L4
         LCLC      &D                                              V1L4
&D       SETC      '&ADDR'(1,1)                                    V1L4
&NAME    CLI       &ADDR,SIMPLVAL+&MODE                            V1L4
         BE        *+12                                            V1L4
         CLI       &ADDR,&MODE
         AIF       ('&VL' NE '').VL    VARIABLE-LENGTH ARGLIST FLAG ?L4
         AIF       ('&D' EQ '4' OR '&D' EQ '0').OK                 V1L4
         MNOTE     8,'### INVALID USE OF CHCKA ###'                V1L4
.OK      BNE       XBADARG+4-&D                                    V1L4
         MEXIT                                                     V1L4
.VL      AIF       ('&VL' NE 'VL').BADVL                           V1L4
         AIF       ('&D' EQ '0').OKVL                              V1L4
.BADVL   MNOTE     8,'### INVALID VL USE OF CHCKA ###'             V1L4
.OKVL    BNE       XVLARGS                                         V1L4
         MEND
