         MACRO
&NAME    CHCKL     &ADDR,&MODE,&IFNOT                              V1L4
         LCLC      &D
&D       SETC      '&ADDR'(1,1)
&NAME    TM        &ADDR,ARRAYELM      LAST ARG WAS ARRAY ELT ?    V1L4
         BNO       *+8
         LA        R1,4(,R1)
         CLI       &ADDR,FNARGTRM+&MODE  PROPER MODE AND TYPE ?    V1L4
         AIF       ('&IFNOT' NE '').IFNOT                          V1L4
         AIF       ('&D' EQ '4' OR '&D' EQ '8' OR '&D' EQ '0').OK
         MNOTE  ' *** INVALID USE OF CHCKL *** '
.OK      BNE       XFENT99+8-&D
         MEXIT                                                     V1L4
.IFNOT   BNE       &IFNOT                                          V1L4
         MEND                                                      V1L4
