         MACRO
&NAME    CHCKLSR   &ADDR
&NAME    CHCKL     &ADDR,SPARGTRM-FNARGTRM                         V1L4
         MEND
