         MACRO
&NAME    CHCKDEF   &MODE,&ADDR
&NAME    CLC       XUNDEF(L&MODE),&ADDR
         EX        R0,XNOPDEFZ
         MEND
