         MACRO
&NAME    CHCKLF
&NAME    IF        (ZR1,LAST),XERRSR21
         B         XERRSR41
         MNOTE     8,'###CHCKLF MACRO IS TO BE RETIRED###'         V1L4
         MEND
