         MACRO
&NAME    CSNAP     &IDENT,&ADDR,&NBYTES
         GBLC      &SNAPS
         GBLA      &SNAPS#
&SNAPS#  SETA      &SNAPS#+1
         AIF       ('&NAME'EQ'').SNAPS1
         MNOTE     '***ERROR*** LABLE INVALID IN SNAP MACRO'
.SNAPS1  ANOP
         AIF       ('&SNAPS'EQ'OMIT').SNAPS2
         STM       R14,R12,XSNAPSAV+12
         AIF       ('&ADDR' EQ '').A
         AIF       ('&ADDR'(1,1)EQ'(').X
         LA        R1,&ADDR
         AGO       .A
.X       ANOP
         AIF       ('&ADDR'EQ'(R1)').A
         LR        R1,&ADDR
.A       ANOP
         AIF       ('&NBYTES' EQ '').B
         AIF       ('&NBYTES'(1,1)EQ'(').Y
         AIF       ('&NBYTES'NE'1').ZZZ
         SR        R2,R2
         AGO       .B
.ZZZ     ANOP
         LA        R2,&NBYTES
         BAL       R104,XSNAP1
         AGO       .Z
.Y       ANOP
         AIF       ('&NBYTES'EQ'(R2)').B
         LR        R2,&NBYTES
.B       ANOP
         BAL       R104,XSNAP
.Z       ANOP
         DC        CL8'&IDENT '
         LM        R14,R12,XSNAPSAV+12
.SNAPS2  ANOP
         MEND
