         MACRO
&NAME    FCALL     &FUNC,&ARG
         LCLA      &N,&M
&N       SETA      N'&SYSLIST-1
&M       SETA      1
         CNOP      2,4
&NAME    LA        R14,*+14+&N*4
         L         R15,=A(&FUNC(1))
         BALR      R1,R15
.FC1     AIF       (&N EQ 0).FC2
&M       SETA      &M+1
         ARG       &SYSLIST(&M,1),&SYSLIST(&M,2)
&N       SETA      &N-1
         AGO       .FC1
.FC2     ANOP
         LARG      &FUNC(1),&FUNC(2)
         MEND
