         MACRO
&NAME    FENT      &ARGS
         LCLA      &N,&M
&N       SETA      N'&SYSLIST-1
&M       SETA      1
         CNOP      0,4
&NAME    STM       R14,R12,12(R13)
         BAL       R11,XENTSPEC
         USING     *,R11
         DC        H'0'
         DC        CL6'&NAME'
         DC    V(XS@VE&SYSLIST(&N+1))                              V1L4
.FC1     AIF       (&N EQ 0).FC2
         ARG       &SYSLIST(&M,1),&SYSLIST(&M,2)
&M       SETA      &M+1
&N       SETA      &N-1
         AGO       .FC1
.FC2     ANOP
         LARG      &NAME,&SYSLIST(1,2)
&N       SETA      N'&SYSLIST-1
.FC3     AIF       (&N EQ 0).FC4
         CLC       XUNDEF(L&SYSLIST(&N,2)),&SYSLIST(&N,1)
         EX        R0,XNOPDEFN
&N       SETA      &N-1
         AGO       .FC3
.FC4     ANOP
         MEND
