         MACRO
&NAME    FENTZ
         USING     *,R15
&NAME    BAL   R15,*+10                                            V1L4
         USING     *,R15
         DC        CL6'&NAME'
         MEND
