         MACRO
&NAME    FLIST     &FN,&MODE
         GBLC      &STATUS,&TEST
         LCLC      &TN
&TN      SETC      '&FN'.'     '
&TN      SETC      '&TN'(1,6)
         AIF       ('&TN' GT '&TEST').OK
         MNOTE     '*** FLIST CARD OUT OF ORDER - &FN IGNORED ***'
         AGO       .END
.OK      ANOP
&TEST    SETC      '&TN'
         STATUS    &FN
         AIF       ('&STATUS'(1,4) NE 'CORE').END
         ADDLIST   &FN,&MODE
.END     MEND
