         MACRO
&NAME    FREESYM   &N
&NAME    LA        R6,&N.(,R6)
         MEND
