         MACRO
&NAME    FRET
&NAME    B         XFRET
         MEND
