         MACRO
&NAME    FUNDEF    &ARGE
         GBLC      &FDYA(255)
         GBLA      &FDYN(255),&FJ
         LCLA      &I
&I       SETA      1
.BEGIN   AIF       (&I GT N'&SYSLIST).END
&FJ      SETA      &FJ+1
&FDYA(&FJ) SETC    '&SYSLIST(&I)'
&FDYN(&FJ) SETA    &SYSLIST(&I+1)
&I       SETA      &I+2
         AGO       .BEGIN
.END     ANOP
&FDYA(&FJ+1) SETC  ' '
         MEND
