         MACRO
&NAME    GETSYM    &N,&CHECK
&NAME    DC        0H'0'
         AIF       (T'&N EQ 'O').A1
         S         R6,KF&N
.A1      AIF       (T'&CHECK NE 'O').A2
         C         R6,XOBJECT
         BL        CERRMO2
         MEXIT
.A2      AIF       ('&CHECK' NE 'CHECK').A3
         BAL       R14,CGETSYM
         MEXIT
.A3      AIF       ('&CHECK' EQ 'NOCHECK').END
         MNOTE     '*******  INVALID GETSYM MACRO  *******'
.END     MEND
