         MACRO
&NAME    HOLTAB
         LCLA      &HOL1,&HOL2
.HOL1    ANOP
&HOL1    SETA      1
.HOL2    ANOP
HOL&HOL1.R&HOL2    EQU          16*R&HOL2+&HOL1
&HOL1    SETA      &HOL1+1
         AIF       (&HOL1 NE 17).HOL2
&HOL2    SETA      &HOL2+1
         AIF       (&HOL2 NE 3).HOL1
HOL01R1  EQU       HOL1R1
HOL05R1  EQU       HOL5R1
UNEX     EQU       HOL16R2+1
INVAL    EQU       UNEX+1
NEAR     EQU       INVAL+1
UNIT     EQU       NEAR+1
         MEND
