         MACRO
&NAME    LARG      &ARG,&MODE
         DC        AL1(FNARGTRM+&MODE),AL3(&ARG)                   V1L4
         MEND
