         MACRO
&NAME    NOMACROS  &A
         GBLA      &#MCALL
         GBLA      &CENT#
         GBLA      &ERROR#
         GBLA      &FREE#
         GBLA      &IF#
         GBLA      &IFANY#
         GBLA      &IFALL#
         GBLA      &IFNALL#
         GBLA      &IFNONE#
         GBLA      &IFNOT#
         GBLA      &IFXXXX#
         GBLA      &LINK2#
         GBLA      &LOOKUP#
         GBLA      &LQ#
         GBLA      &OFFSET#
         GBLA      &OUTPUT#
         GBLA      &Q#
         GBLA      &SETLNK#
         GBLA      &SETSTK#
         GBLA      &SNAPS#
         GBLA      &SLINK#
         GBLA      &SPRIN#
         GBLA      &STQ#
         GBLA      &THEN#
         GBLA      &THENXX#
         GBLA      &TVNAM#
         MNOTE   *,'CENT               &CENT#'
         MNOTE   *,'ERROR              &ERROR#'
         MNOTE   *,'FREE               &FREE#'
         MNOTE   *,'IF                 &IF#'
         MNOTE   *,'IFALL              &IFALL#'
         MNOTE   *,'IFANY              &IFANY#'
         MNOTE   *,'IFNALL             &IFNALL#'
         MNOTE   *,'IFNONE             &IFNONE#'
         MNOTE   *,'IFNOT              &IFNOT#'
         MNOTE   *,'IFXXXXXX           &IFXXXX#'
         MNOTE   *,'LINK2              &LINK2#'
         MNOTE   *,'LOOKUP             &LOOKUP#'
         MNOTE   *,'LQ                 &LQ#'
         MNOTE   *,'OFFSET             &OFFSET#'
         MNOTE   *,'OUTPUT             &OUTPUT#'
         MNOTE   *,'Q                  &Q#'
         MNOTE   *,'SETLINK            &SETLNK#'
         MNOTE   *,'SETSTACK           &SETSTK#'
         MNOTE   *,'SNAPS              &SNAPS#'
         MNOTE   *,'SLINK              &SLINK#'
         MNOTE   *,'SPRIN              &SPRIN#'
         MNOTE   *,'STQ                &STQ#'
         MNOTE   *,'THEN               &THEN#'
         MNOTE   *,'THENXXXX           &THENXX#'
.*       MNOTE   *,'TVNAM              &TVNAM#'
         AIF       ('&A' EQ 'STARTA').STARTA
&#MCALL  SETA      &SYSNDX-&#MCALL
         MNOTE     *,'THERE WERE &#MCALL MACRO CALLS IN THIS DECK'
         AGO       .B
.STARTA  ANOP
&#MCALL  SETA      &SYSNDX-&#MCALL-1
         MNOTE     *,'THERE WERE &#MCALL MACROS IN STARTA && COMMR'
.B       ANOP
&CENT#   SETA      0
&ERROR#  SETA      0
&FREE#   SETA      0
&IF#     SETA      0
&IFALL#  SETA      0
&IFANY#  SETA      0
&IFNALL# SETA      0
&IFNONE# SETA      0
&IFNOT#  SETA      0
&IFXXXX# SETA      0
&LOOKUP# SETA      0
&LQ#     SETA      0
&OFFSET# SETA      0
&OUTPUT# SETA      0
&Q#      SETA      0
&SETLNK# SETA      0
&SETSTK# SETA      0
&SLINK#  SETA      0
&SNAPS#  SETA      0
&SPRIN#  SETA      0
&STQ#    SETA      0
&THEN#   SETA      0
&THENXX# SETA      0
&TVNAM#  SETA      0
         MEND
