         MACRO
&NAME    ROMIT     &ADDR
&NAME    DC        0H'0'
         DC        X'AFFB'
         DC        AL2(XBOOT-START)
         MEND
