         MACRO
&NAME    SETSTACK  &N,&RET
         GBLA      &SETSTK#
         LCLA      &NA
&SETSTK# SETA      &SETSTK#+1
         AIF       (T'&N EQ 'O').NON
         AIF       (T'&N EQ 'U').CHAR
&NA      SETA      &N
         AGO       .LA
.CHAR    ANOP
&NA      SETA      K'&N-2
.LA      ANOP
&NAME    LA        R1,&NA+4(,R9)
         THENXXXX  (DO,CSETSTAK),&RET
         MEXIT
.NON     ANOP
&NAME    THENXXXX  (DO,CSETSTAK),&RET
         MEND
