         MACRO
&NAME    SNAPS     &IDENT,&ADDR,&NBYTES
&NAME    CSNAP     &IDENT,&ADDR,&NBYTES
         MEND
