         MACRO
&NAME    SPRIN     &ADDR,&NBYTES
         GBLA      &SPRIN#
&SPRIN#  SETA      &SPRIN#+1
&NAME    STM       0,15,XPRINTS
         LA        R1,&ADDR
         AIF       (T'&NBYTES EQ 'O').NGIVEN
         LA        R2,&NBYTES-1
.NGIVEN  BAL       R14,XPRINT
         LM        0,15,XPRINTS
         MEND
