         MACRO
         STATLIST
         GBLC      &FNAME(255),&FSTATUS(255)
         GBLA      &IND1
         LCLA      &N
         LCLC      &NAME                                           V1L4
&N       SETA      1
         MNOTE     0,'  THE STATUS OF EACH SUBPROGRAMME IS AS FOLLOWS'
         MNOTE     *,'   EXP       CORE   '                        V1L4
         MNOTE     *,'   DEXP      CORE   '                        V1L4
         MNOTE     *,'   ALOG      CORE   '                        V1L4
         MNOTE     *,'   ALOG10    CORE   '                        V1L4
         MNOTE     *,'   DLOG      CORE   '                        V1L4
         MNOTE     *,'   DLOG10    CORE   '                        V1L4
.LIST    ANOP
&NAME    SETC      '&FNAME(&N)'.'       '                          V1L4
&NAME    SETC      '&NAME'(1,6)                                    V1L4
         MNOTE     *,'   &NAME    &FSTATUS(&N)   '                 V1L4
&N       SETA      &N+1
         AIF       (&N LT &IND1).LIST
         MEND
