         MACRO
&NAME    XROUTS    &NUM
&NAME    MVC       *+8(2),ZR14+2       SET UP NEXT LA              V1L4
         LA        R15,*-*                                         V1L4
         CLC       XUNDEF(&NUM),ZR15
         BNER      R14
         B         XERRUV0
         MEND
