         MACRO
&NAME    SCANTIOT &DDNAME,&ERRLOC,&TIOT=
&NAME    L     15,16                  CVT POINTER
         L     15,0(,15)              POINTER TO TCB/ASCB WORDS
         L     15,4(,15)              CURRENT TCB ADDRESS
         ICM   15,B'1111',12(15)      GET TIOT ADDRESS
         BZ    &ERRLOC                IF NONE, BRANCH
         AIF   (T'&TIOT EQ 'O').A1
         AIF   ('&TIOT'(1,1) EQ '(').R1
         STCM  15,B'1111',&TIOT       SAVE TIOT ADDRESS FOR USER
         AGO   .A1
.R1      ANOP
         STCM  15,B'1111',0&TIOT      SAVE TIOT ADDRESS (REG FORMAT)
.A1      ANOP
         LA    15,24(,15)             POINT TO FIRST DD ENTRY
         SLR   14,14                  CLEAR TIOELNGH REGISTER
A&SYSNDX ICM   14,B'0001',0(15)       GET TIOT ENTRY LENGTH
         BZ    &ERRLOC                IF END-OF-TIOT, BRANCH
         CLC   4(8,15),&DDNAME        ELSE, COMPARE TO TIOT DDNAME
         BE    B&SYSNDX               IF EQUAL, EXIT TO FOUND
         ALR   15,14                  ELSE, BUMP TO NEXT ENTRY
         B     A&SYSNDX
B&SYSNDX DS    0H
         MEND
