         MACRO
&NAME    DCDSWORK  &DUMMY
.*
.*             CHANGES TO RELEASE 3
.*             CHANGES TO RELEASE 2
.*             CHANGES TO RELEASE 1
.*
.* GENERATES A WORK AREA FOR DC/DS EVALUATION ROUTINE
.* (IFNX4D AND IFNX4N). THE WORK AREA IS GENERATED IN
.* IFNX4D AND IFNX4N BY A CALL FROM MACRO ICOMMON
&NAME    DS    0F                       NAME
DCSWORK  DS    0XL11                             DC SWITCH CODES
DCSWTCH  DSW   BITLN,ESMOD,TYPEL,TYPEV,TYPEZ     DC/DS SWITCH CODE
LFDEL    DS    C                                 LEFT FIELD DELIMITER
RTDEL    DS    C                        RIGHT FIELD DELIMITER
SCADDR   DS    X                        SCAN ROUTINE ADDRESS
DCALIGN  DS    X                        IMPLIED LENGTH AND ALIGNMENT
MINLN    DS    X                        MINIMUM LENGTH LODIFIER RANGE
MAXLN    DS    H                        MAXIMUM LENGTH MODIFIER RANGE
BITINCR  DS    H                        NUMBER OF BITS PER DIGIT
HILIMIT  DS    X                        HIGHEST VALUE OF VALID DIGIT
PERIOD   EQU   D0+BITINCR               DECIMAL POINT ENCOUNTERED
EXPONENT EQU   D1+BITINCR               EXPONENT ENCOUNTERED
SUBFIELD EQU   D1+BITINCR               SUBFIELD ENCOUNTERED
TYPECALL DSW   ,DXDALIGN,DEFNAME,DLOCTREF,DCCALL,DSCALL,LTCALL,LTORGSCN
LEVELPTR DS    A                        LEVEL POINTER
DUPFAC   DS    F                        DUPLICATION FACTOR
CONLNG   DS    F                        CONSTANT LENGTH
DCDSWORK DS    0XL38                    INITIALIZE
REFCOUNT DS    H                        SYMBOL COUNT
SYMCOUNT DS    H                        SYMBOL COUNT
VEETABLE DS    16X                      V-TYPE CONSTANTS TABLE
ADSYM    DS    A                        ADDRESS OF SYMBOL TABLE ENTRY
BITADD   DS    H                        RESIDUAL BIT COUNT
OPCNT    DS    H                        OPERAND COUNT
LATTRSAV DS    H                        SAVE
DCWORK   DS    0XL8                     INITIALIZE
LATTR    DS    H                        LENGTH ATTRIBUTE
ADUPFAC  DS    A                        ADDRESS OF DUPLICATION FACTOR
CONCT    DS    H                        CONSTANT COUNT
         MEND
