         MACRO
&NAME    JFIND &ADDR=
.*       GENERATES A CALL TO THE FIND ROUTINE IN THE I/O MODULE
.*       TO ISSUE A FIND FOR A MACRO OR COPY CODE MEMBER.
         AIF   (K'&ADDR EQ 0).ERR1
&NAME    JINST LA,R10,&ADDR
         L     R12,JINMLC               LOAD BASE
         BAL   R9,JFIND(,R12)           GO TO JFIND
         MEXIT
.ERR1    MNOTE 8,'PARAMETER ERROR.'
         MEND
