         MACRO
&NAME    JINST &OP,&REG,&ADDR,&COMP
         LCLC  &X
         LCLA  &I
.*       INNER MACRO.   GENERATES MACHINE INSTRUCTIONS ACCORDING
.*       TO MACRO CALL OPERANDS VALUES.
         AIF   ('&ADDR'(1,1) NE '(').NXC
         AIF   ('&ADDR'(K'&ADDR,1) NE ')').NXC
&X       SETC  '&ADDR'(2,K'&ADDR-2)
         AIF   ('&X' NE '&REG').NXB
         AIF   (K'&NAME EQ 0).NXA
&NAME    DC    0H'0'
.NXA     MEXIT
.NXB     ANOP
&NAME    LR    &REG,&X
         MEXIT
.NXC     ANOP
&I       SETA  4
         AIF   (K'&ADDR GE 4).NXC1
&I       SETA  K'&ADDR
.NXC1    AIF   (K'&COMP NE 0 AND '&ADDR'(1,&I) NE 'FILE').ERR1
&NAME    &OP   &REG,&ADDR
         MEXIT
.ERR1    MNOTE 8,'PARAMETER ERROR.'
         MEND
