         MACRO
&NAME    JMODID
         GBLA  &SNUMBER,&ASMLEV
         GBLC  &ASMID,&COMPNM
.*       GENERATES EMBEDDED IDENTIFIER CONSISTING OF SIX CARACTER
.*       MODULE NAME AND A HALF WORD BINARY ASSEMBLER LEVEL.
&NAME    DC    CL6'&COMPNM&ASMID',HL2'&ASMLEV'
         MEND
