         MACRO
&NAME    JNOTE &FILE=
.*       GENERATES A CALL TO THE WORKFILE I/O MODULE TO GET
.*       THE RELETIVE POSITION OF THE LAST READ OR WRITE
         AIF   (K'&FILE EQ 0).ERR1
&NAME    JINST LA,R10,&FILE,FILE
         L     R12,JMLC                 LOAD BASE
         BAL   R9,JNOTE(,R12)           GO TO JNOTE
         MEXIT
.ERR1    MNOTE 8,'PARAMETER ERROR.'
         MEND
