         MACRO
&NAME    JNOTELB
.*       GENERATES A CALL TO THE INPUT I/O MODULE TO NOTE
.*       THE POSITION IN LIBRARY.
&NAME    L     R12,JINMLC               LOAD BASE
         BAL   R9,JNOTELB(,R12)         GO TO JNOTELB
         MEND
