         MACRO
&NAME    JPOINTLB &ADDR=
.*       GENERATES A CALL TO THE INPUT I/O MODULE TO POSITION
.*       THE LIBRARY FILE TO GET THE RECORD AFTER THE ONE NOTED.
         AIF   (K'&ADDR EQ 0).ERR1
&NAME    JINST LA,R10,&ADDR
         L     R12,JINMLC               LOAD BASE
         BAL   R9,JPOINTLB(,R12)        GO TO JPOINTLB
         MEXIT
.ERR1    MNOTE 8,'PARAMETER ERROR.'
         MEND
