         MACRO
&NAME    JPOINT &FILE=,&ADDR=,&NEXT=
         LCLC  &XXX
         LCLA  &I
.*       GENERATES A CALL TO THE WORKFILE I/O MODULE TO POSITION
.*       THE FILE TO A SPECIFIED POSITION
         AIF   (K'&NEXT LT 4).IN1
&I       SETA  4
         AGO   .IN2
.IN1     ANOP
&I       SETA  K'&NEXT
.IN2     ANOP
         AIF   (K'&FILE EQ 0 OR K'&ADDR EQ 0 AND                       X
               '&NEXT' NE 'START').ERR1
         AIF   ('&NEXT' NE 'READ' AND '&NEXT' NE 'WRITE' AND           X
               '&NEXT' NE 'GET' AND '&NEXT' NE 'PUT' AND               X
               '&NEXT' NE 'START').ERR1
&XXX     SETC  '&NEXT'(1,&I)
&NAME    SET   JPT4&XXX,ON
         JINST LA,R10,&FILE,FILE
         AIF   ('&NEXT' EQ 'START').NXA
         JINST LA,R11,&ADDR
.NXA     L     R12,JMLC                 LOAD BASE
         BAL   R9,JPOINT(,R12)          GO TO JPOINT
         MEXIT
.ERR1    MNOTE 8,'PARAMETER ERROR.'
         MEND
