         MACRO
&NAME    JPUNCH &SEQ=YES
.*       GENERATES A CALL TO THE OUTPUT I/O MODULE TO OUTPUT
.*       A 80-BYTE RECORD ON SYSPUNCH AND SYSGO AND GET THE ADDRESS
.*       OF THE NEXT BUFFER BACK.
         AIF   ('&SEQ' EQ 'YES').NXA
&NAME    SET   JNOSEQPH,ON
         L     R12,JOUTMLC              LOAD BASE
         AGO   .NXB
.NXA     ANOP
&NAME    L     R12,JOUTMLC              LOAD BASE
.NXB     BAL   R9,JPUNCH(,R12)          GO TO JPUNCH
         MEND
