         MACRO
&NAME    JTPRINT
.*       GENERATES A CALL TO THE OUTPUT I/O MODULE TO OUTPUT A RECORD
.*       ON SYSTERM DATA SET.
&NAME    L    R12,JOUTMLC               GET OUTPUT PACKAGE ENTRY
         BAL   R9,TSPRINT(,R12)         GO TO TSO PRINT
         MEND
