         MACRO
&NAME    SET   &SW,&OP
         GBLA  &INDEX
         GBLC  &DEFNAME(255),&SWNAME(255)
         LCLA  &I,&J,&K,&II
         LCLC  &DEF,&P(8)
.*       SET A SPECIFIED BIT ON OR OFF.
         AIF   (K'&SW EQ 0).ERR1
         AIF   (N'&SW LT 1 OR N'&SW GT 8).ERR1
.LOOP1   ANOP
&I       SETA  &I+1
         AIF   (&I GT &INDEX).DBV1
         AIF   ('&SW(1)' NE '&SWNAME(&I)').LOOP1
         AIF   (K'&OP EQ 0).ERR1
&DEF     SETC  '&DEFNAME(&I)'
&I       SETA  &I-7
&J       SETA  &I+14
         AIF   (&I GE 1).OKI
&I       SETA  1
.OKI     AIF   (&J LE &INDEX).OKJ
&J       SETA  &INDEX
.OKJ     ANOP
&II      SETA  &I
&K       SETA  1
.LOOP2   ANOP
&K       SETA  &K+1
         AIF   (&K GT N'&SW).DONE1
.LOOP3   AIF   ('&SW(&K)' EQ '&SWNAME(&I)').MATCH1
&I       SETA  &I+1
         AIF   (&I LE &J).LOOP3
         AGO   .ERR2
.MATCH1  AIF   ('&DEF' NE '&DEFNAME(&I)').ERR2
&P(&K)   SETC  '+'
&I       SETA  &II
         AGO   .LOOP2
.DONE1   AIF   ('&OP' NE 'ON').TRYOFF
&NAME    OI    &DEF,&SW(1)&P(2)&SW(2)&P(3)&SW(3)&P(4)&SW(4)&P(5)&SW(5)&X
               P(6)&SW(6)&P(7)&SW(7)&P(8)&SW(8)
         AGO   .EXIT
.TRYOFF  AIF   ('&OP' NE 'OFF').TRYFLIP
&NAME    NI    &DEF,BITFF-(&SW(1)&P(2)&SW(2)&P(3)&SW(3)&P(4)&SW(4)&P(5)X
               &SW(5)&P(6)&SW(6)&P(7)&SW(7)&P(8)&SW(8))
         AGO   .EXIT
.TRYFLIP AIF   ('&OP' NE 'FLIP').ERR1
&NAME    XI    &DEF,&SW(1)&P(2)&SW(2)&P(3)&SW(3)&P(4)&SW(4)&P(5)&SW(5)&X
               P(6)&SW(6)&P(7)&SW(7)&P(8)&SW(8)
         AGO   .EXIT
.DBV1    AIF   (N'&SW NE 1).ERR1
         AIF   (K'&SW GT 7).ERR1
         AIF   (K'&OP EQ 0).DVB2
&NAME    MVI   V&SW,&OP
         AGO   .EXIT
.DVB2    ANOP
&NAME    MVI   V&SW,&SW
.EXIT    MEXIT
.ERR1    MNOTE 8,'PARAMETER ERROR.'
         MEXIT
.ERR2    MNOTE 8,'SWITCH NOT PREVIOUSLY DEFINED OR NOT IN SAME BYTE.'
         MEND
