         MACRO
&NAME    BHR   &R
&NAME    BCR   2,&R                BR ON HIGH
         MEND
