         MACRO
&NAME    BNHR  &R
&NAME    BCR   13,&R               BR ON NOT HIGH
         MEND
