         MACRO
&NAME    BNOR  &R
&NAME    BCR   14,&R               BR IF NOT ONES
         MEND
