         MACRO
&NAME    BNPR  &R
&NAME    BCR   13,&R               BR ON NOT PLUS
         MEND
