         MACRO
&NAME    BNZR  &R
&NAME    BCR   7,&R                BR ON NOT ZERO
         MEND
