         MACRO
&NAME    BOR   &R
&NAME    BCR   1,&R                BR ON OVERFLOW OR IF ONES
         MEND
