         MACRO
&NAME    BPR   &R
&NAME    BCR   2,&R                BR ON PLUS
         MEND
