         MACRO
&NAME    BZR   &R
&NAME    BCR   8,&R                BR ON ZERO
         MEND
