         MACRO
&NAME    LPYR  &INPUT,&NOLPYR
         AIF   ('&INPUT' NE ' ').NO
         MNOTE 'FIRST PARAMETER OMITTED'
         AGO   .N1
.NO      AIF   ('&NOLPYR' NE ' ').N2
         MNOTE 'SECOND PARAMETER OMITTED'
.N1      MNOTE 'GENERATION TERMINATED'
         MEXIT
.N2      ANOP
&NAME    TM    &INPUT,X'01'
         BO    &NOLPYR
         TM    &INPUT,X'12'
         BM    &NOLPYR
         MEND
