LISTCX   TITLE 'LISTCX - LIST CATALOG AND VTOC BY INDEX LEVELS'
         MACRO
&NAME    ENTER &BASE,&HDR,&LENGTH,&IBFINT,&REG
         LCLA  &L,&M
         LCLC  &NAM
.*********************************************************************.
.*                                                                   *.
.*  THE 'ENTER' MACRO IS USED TO PRODUCE A RE-ENTRANT ENTRY ROUTINE. *.
.*                                                                   *.
.*  THE ENTER MACRO IS USED IN PLACE OF A 'SAVE' MACRO TO SAVE THE   *.
.*  GENERAL PURPOSE REGISTERS AND TO ESTABLISH ADDRESSABILITY BY     *.
.*  MEANS OF A USING.  IT ALSO ESTABLISHES THE FORWARD AND BACKWARD  *.
.*  SAVEAREA CHAINS.  THE SAVEAREA FOR THE PROGRAM CONTAINING THE    *.
.*  ENTER MACRO IS ACQUIRED DYNAMICALLY BY MEANS OF A 'GETMAIN'      *.
.*  MACRO.  IN ADDITION, IF THIS PROGRAM USES ANY FORTRAN IV SUB-    *.
.*  ROUTINES (EITHER PROGRAMMER CODED OR LIBRARY ROUTINES) 'ENTER'   *.
.*  MAY BE USED TO ESTABLISH A LINKAGE TO THE FORTRAN INTERRUPT      *.
.*  HANDLER (IBFINT) TO INITIALIZE IT.                               *.
.*                                                                   *.
.*  THE LABEL OF THIS MACRO IS USED TO DEFINE AN ENTRY POINT TO THE  *.
.*  PROGRAM.                                                         *.
.*                                                                   *.
.*  THE FIRST OPERAND SPECIFIES THE BASE REGISTER TO BE USED IN THE  *.
.*  PROGRAM.  A USING IS ISSUED FOR THIS REGISTER AND IT IS LOADED   *.
.*  WITH THE ENTRY POINT ADDRESS.  IF THIS OPERAND IS OMITTED, OR IS *.
.*  INVALID, REGISTER 12 IS ASSUMED.  REGISTERS 0,1,13 OR 14 MAY NOT *.
.*  BE USED AS THE BASE REGISTER.                                    *.
.*                                                                   *.
.*  THE SECOND OPERAND IS USED AS AN ENTRY POINT IDENTIFIER FOR THE  *.
.*  PROGRAM IN THE SAME MANNER THAT 'SAVE' GENERATES ITS IDENTIFIER. *.
.*  IF AN ASTERISK IS USED (*) THE LABEL IS USED AS THE IDENTIFIER.  *.
.*  IF THIS OPERAND IS OMMITTED, NO ID IS GENERATED.  TT MUST NOT    *.
.*  CONTAIN ANY BLANKS AND SHOULD NOT BE ENCLOSED IN APOSTROPHES.    *.
.*  IF DELIMITERS ARE REQUIRED FOR EASY READING, USE PERIODS OR THE  *.
.*  BREAK CHARACTER (_),  E.G., ENTRY_POINT_TO_MAIN_PROG .  IF       *.
.*  APOSTROPHES (') OR AMPERSANDS (&) ARE USED, USE TWO ADJACENT     *.
.*  CHARACTERS RATHER THAN ONE TO REPRESENT THE REQUIRED CHARACTER.  *.
.*                                                                   *.
.*  THE THIRD OPERAND IS THE NUMBER OF ADDITIONAL BYTES TO BE        *.
.*  ACQUIRED BY THE GETMAIN THAT ACQUIRES THE SAVEAREA.  THESE BYTES *.
.*  ARE LOCATED IMMEDIATELY BEHIND THE SAVEAREA AND ARE PADDED TO A  *.
.*  DOUBLE WORD LENGTH AND ARE DOUBLE-WORD ALIGNED.  THE AREA WILL   *.
.*  BE ACQUIRED FROM SUBPOOL 0.                                      *.
.*                                                                   *.
.*  THE FOURTH OPERAND, IF PRESENT, CAUSES A LINKAGE TO 'IBFINT', THE*.
.*  FORTRAN INTERUPT HANDLER INITIALIZER.  IF THERE IS ANY POSSI-    *.
.*  BILITY OF THE LOWER LEVEL FORTRAN PROGRAM CAUSING AN ERROR       *.
.*  INTERRUPT OR A TERMINAL RETURN TO THE SUPERVISOR, THIS FORTRAN   *.
.*  INITIALIZER MUST BE USED.  WHEN USED, REG13 MUST POINT TO A SAVE *.
.*  AREA WHOSE REG14 FIELD CONTAINS THE RETURN POINT TO THE          *.
.*  SUPERVISOR.  THIS OPERAND SHOULD BE 'IBFINT' BUT ANYTHING WILL   *.
.*  BE ACCEPTED.                                                     *.
.*                                                                   *.
.*   THE FIFTH OPERAND, IF PRESENT, MUST BE NOREG TO DENOTE THE      *.
.*   EXCLUSION OF REGISTER ASSIGNMENTS.                              *.
.*                                                                   *.
.*  EXAMPLES:  MAIN  ENTER  12,MY_MAIN_PROG,100,IBFINT               *.
.*             SUB1  ENTER  11,*,50                                  *.
.*                                                                   *.
.*  WARNING:  REGISTER 15 IS 'USED' AND 'DROPPED' DURING THE EXPAN-  *.
.*  SION OF THE ENTER MACRO.  IT WILL BE IN EFFECT AT THE END OF THE *.
.*  EXPANSION IF IT HAS BEEN SPECIFIED AS THE BASE REGISTER OPERAND. *.
.*                                                                   *.
.*********************************************************************.
         AIF   ('&REG' NE 'NOREG').REGAS
         SPACE    1
*        ***   NO REGISTER ASSIGNMENTS SPECIFIED   ***
         AGO   .NO1
.REGAS   ANOP
         SPACE     3
*          ***  REGISTER ASSIGNMENTS   ****
         SPACE   1
R0       EQU   0
R1       EQU   1
R2       EQU   2
R3       EQU   3
R4       EQU   4
R5       EQU   5
R6       EQU   6
R7       EQU   7
R8       EQU   8
R9       EQU   9
R10      EQU   10
R11      EQU   11
R12      EQU   12
R13      EQU   13
R14      EQU   14
R15      EQU   15
.NO1     ANOP
         SPACE 3
*                            ENTRY ROUTINE
         SPACE 1
         AIF   (K'&NAME GE 1).OKLBL
         SPACE 1
         MNOTE 4,'*** NO LABEL PROVIDED. ENTRY NAME WILL BE GENERATED.'
         SPACE 1
&NAM     SETC  'IHB&SYSNDX.A'      GENERATE ENTRY NAME
&M       SETA  8
         AGO   .USING
.OKLBL   ANOP
&NAM     SETC  '&NAME'
.USING   USING &NAM.,15
         ENTRY &NAM
&NAM     B     IHB&SYSNDX             BRANCH OVER IDENTIFIER
&L       SETA  K'&HDR
         AIF   (&L LE 0).NOHDR     IF NO HEADER PROVIDED
.OKHDR   AIF   ('&HDR' EQ '*').STARLAB
         DC    AL1(&L)              LENGTH OF ID
         DC    C'&HDR.'
         AGO   .DROP
.STARLAB ANOP
         AIF   (&M NE 0).P3
&L       SETA  K'&NAME
         AGO   .P1
.P3      ANOP
&L       SETA  &M
         AGO   .P1
.NOHDR   DC    AL2(0)              IDENTIFIER LENGTH IS 0
         AGO   .DROP
.P1      DC    AL1(&L.),C'&NAM.'     ID LENGTH AND ID
.DROP    DROP  15                  WARNING:  REG15 IS DROPPED HERE
         AIF   (K'&BASE EQ 1 OR K'&BASE EQ 2).OKNUMBR
         AIF   (K'&BASE EQ 0).NOBASE  IF BASE REG OMITTED
.PUT     SPACE 1
         MNOTE 4,'*** INVALID BASE REGISTER SPECIFIED, REG 12 ASSUMED.'
.SPACE   SPACE 1
&L       SETA  12
         AGO   .STM
.NOBASE  SPACE 1
*        NO BASE REGISTER SPECIFIED.  REGISTER 12 WILL BE USED.
         AGO   .SPACE
.OKNUMBR ANOP
&L       SETA  &BASE
         AIF   (&L LT 2 OR &L GT 15 OR &L EQ 13 OR &L EQ 14).PUT
.STM     ANOP
IHB&SYSNDX STM 14,12,12(13)        STORE ALL REGS IN CALLER'S SAVEAREA
         USING &NAM.,&L                DEFINE BASE REGISTER
         AIF   (&L EQ 15).SKIP
         LR    &L,15               LOAD ENTRY ADDRESS INTO BASE REG
.SKIP    ANOP
&L       SETA  72                  SAVEAREA LENGTH SETUP
         AIF   (T'&LENGTH EQ 'O').SKIP1  IF ADDITIONAL LENGTH OMITTED
         AIF   (T'&LENGTH EQ 'N').SKIP2     IF TYPE IS SELF-DEFINING
         MNOTE 4,'*** LENGTH OF ADDITIONAL AREA IS INVALID. IGNORED.'
         AGO   .SKIP1
.SKIP2   ANOP
&L       SETA  72+&LENGTH          COMPUTE TOTAL GETMAIN LENGTH
.SKIP1   L     0,=A(&L.)            GETMAIN LENGTH GOES IN REG0
         GETMAIN R,LV=(0)
         XC    0(72,1),0(1)        CLEAR SAVEAREA TO ZERO
         ST    13,4(0,1)           SET SAVEAREA BACK CHAIN
         ST    1,8(0,13)           SET SAVEAREA FORWARD CHAIN
         AIF   ('&IBFINT' EQ '').NOIBFNT         NO LINKAGE DESIRED
         AIF   ('&IBFINT' EQ 'IBFINT').OKIBFNT   PROPER OPERAND PRESENT
         SPACE 1
         MNOTE 4,'*** INVALID FOURTH OPERAND. ''IBFINT'' ASSUMED.'
         SPACE 1
.OKIBFNT AIF   (&L GT 1).P2        WAS 0 OR 1 SPECIFIED AS THE BASE REG
         LM    0,1,20(1)           RESTORE BASE REG FOR NEXT INSTRUCT.
.P2      L     15,=V(IBCOM#)       INITIALIZE FORTRAN INTERRUPT HANDLER
         BAL   14,64(0,15)         ENTRY POINT IS AT IBCOM# + 64
         LM    14,15,12(13)        RESTORE 14-15 AS BEFORE IBFINT CALL
.NOIBFNT LR    13,1                PUT LOCAL SAVEAREA ADDRESS IN REG13
         L     1,4(0,13)           RESTORE REGS 0 & 1 FROM THE PLACE
         LM    0,1,20(1)             WHERE SAVED IN CALLER'S SAVE AREA
         SPACE 1
         MEND
         EJECT
         MACRO
&NAME    LEAVE &SAVE,&CODE,&LENGTH,&T,&NR
.*********************************************************************.
.*                                                                   *.
.*  THE 'LEAVE' MACRO IS DESIGNED TO PRODUCE AN EXIT ROUTINE THAT IS *.
.*  USED IN COMBINATION WITH THE 'ENTER' MACRO.  IT PRODUCES A       *.
.*  COMPANION RE-ENTRANT ROUTINE FOR 'ENTER'.                        *.
.*                                                                   *.
.*  ALL OPERANDS ARE OPTIONAL AND MAY BE OMITED AS DESIRED.  ANY     *.
.*  OPERAND TO THE LEFT OF ONE THAT IS USED MUST BE PRESENT OR MUST  *.
.*  BE INDICATED AS A NULL PARAMETER BY THE USE OF A COMMA.          *.
.*                                                                   *.
.*  A LABEL MAY BE WRITTEN FOR THE MACRO.  IT WILL ESTABLISH A POINT *.
.*  THAT THE USER MAY BRANCH TO TO ENTER THE 'LEAVE' MACRO.          *.
.*                                                                   *.
.*  THE FIRST OPERAND EXPRESSES THOSE REGISTERS WHICH THE SUBROUTINE *.
.*  WANTS TO RETURN TO THE CALLING PROGRAM UNCHANGED FROM THEIR      *.
.*  CURRENT VALUES. THIS OPERAND IS EXPRESSED AS A SINGLE NUMBER OR, *.
.*  AS A PAIR OF NUMBERS ENCLOSED WITHIN PARENTHESES AND SEPARATED BY*.
.*  A COMMA.  THE NUMBER OR NUMBERS MUST BE IN THE RANGE 0 - 12. THE *.
.*  FIRST REGISTER MAY BE HIGHER NUMBERED THAN THE SECOND REGISTER.  *.
.*                                                                   *.
.*  THE SECOND OPERAND IS USED AS A RETURN CODE IN REG15.  THE USER  *.
.*  CODES AN EXPLICIT NUMBER (0 - 4095) OR USES THE SPECIAL REGISTER *.
.*  NOTATION '(N)' , WHERE N IS A GPREG THAT ALREADY CONTAINS THE    *.
.*  VALUE TO BE USED AS THE RETURN CODE.  THE RETURN CODE WILL BE    *.
.*  IN REG15 WHEN THE RETURN IS COMPLETED.  IF THIS OPERAND IS       *.
.*  OMITTED, REGISTER 15 WILL BE RESTORED TO ITS VALUE ON ENTRY.     *.
.*                                                                   *.
.*  THE THIRD OPERAND IS THE NUMBER OF ADDITONAL BYTES BEYOND THE 72 *.
.*  BYTE SAVEAREA THAT WERE ACQUIRED BY THE 'ENTER' MACRO.  THESE    *.
.*  BYTES WILL BE RELEASED ALONG WITH THE SAVEAREA UNLESS THE 'NR'   *.
.*  OPERAND IS CODED.  THE AREA FREED IS IN SUBPOOL 0.               *.
.*                                                                   *.
.*  THE FOURTH OPERAND IS THE LETTER 'T'.  IT PERFORMS THE SAME      *.
.*  FUNCTION AS THE OS 'RETURN' MACRO'S 'T' PARAMETER, I.E., IT      *.
.*  FLAGS THE REGISTER 14 FIELD IN THE HIGHER SAVEAREA TO INDICATE   *.
.*  THAT A RETURN HAS OCCURRED.                                      *.
.*                                                                   *.
.*  THE FIFTH OPERAND INDICATES THAT THE LEAVE MACRO IS NOT TO       *.
.*  RELEASE THE SAVEAREA POINTED TO BY REG13.  THIS PERMITS THE      *.
.*  MACRO TO BE USED IN NON-REENTRANT PROGRAMS.  IT SHOULD BE THE    *.
.*  LETTERS 'NR'.                                                    *.
.*                                                                   *.
.*  EAMPLES:  LEAVE (0,1),8,100,T,NR     LEAVE 1,(15),,,NR           *.
.*                                                                   *.
.*  WARNING: REG14 AND REG13 MAY NOT BE SAVED THROUGH THE EXECUTION  *.
.*           OF THE LEAVE MACRO. NEITHER REGS 13 OR 14 MAY BE USED   *.
.*           TO PROVIDE A SOURCE FOR THE RETURN CODE.                *.
.*                                                                   *.
.*********************************************************************.
         LCLA  &WORK1,&WORK2,&OFFSET
         SPACE 3
*                            EXIT ROUTINE
         SPACE 1
&NAME    L     14,4(0,13)          PICKUP PTR TO HIGHER SAVE AREA
.CKCODE  AIF   (T'&CODE EQ 'O').CKSAVE      WAS A RETURN CODE OMITTED?
         AIF   ('&CODE'(1,1) EQ '(').INREG  YES.  IS IT IN A GPREG?
         AIF   (&CODE LT 0 OR &CODE GT 4095).BADCODE  IS IT IN RANGE?
         LA    15,&CODE                PUT RETURN CODE IN REG15
.STORE15 ST    15,16(0,14)         STORE RETURN CODE IN REG 15 SAVESPOT
.CKSAVE  AIF   (T'&SAVE EQ 'O').CHECKNR     WAS &SAVE OMITTED?
&WORK1   SETA  &SAVE(1)            NO, CHECK VALIDITY OF 1ST SAVE OPND
         AIF   (&WORK1 LT 0 OR &WORK1 GT 12).BADSAVE  IF OUTSIDE RANGE
         AIF   (N'&SAVE EQ 1).ONESAVE  ONLY ONE REG TO SAVE?
         AIF   (N'&SAVE NE 2).TOOMANY  NO. IS A RANGE SPECIFIED?
.IGNORE  ANOP
&WORK2   SETA  &SAVE(2)            PICKUP SECOND SAVE REG NUMBER
         AIF   (&WORK2 LT 1 OR &WORK2 GT 12).BADSAVE     CHECK VALIDITY
         AIF   (&WORK1 EQ &WORK2).SAMSAVE   SAME REG AS BOTH OPNDS?
&OFFSET  SETA  &WORK1*4+20         GET OVER WORDS 1 - 5 OF SAVE AREA
         AIF   (&WORK1 GT &WORK2).STORE2    SAVE REG1 GREATER THAN REG2
         STM   &WORK1,&WORK2,&OFFSET.(14)         SAVE THE REGISTERS
.CHECKNR AIF   (T'&NR EQ 'O').COMMON        RETAIN CURRENT SAVEAREA?
         AIF   ('&NR' EQ 'NR').RESET        SKIP OVER FREEMAIN CODE
         AIF   ('&NR' NE 'NR').BADNR
.COMMON  LR    1,13                SETUP TO FREE LOCAL SAVE AREA
&WORK1   SETA  72                  STANDARD SAVEAREA SIZE TO FREE
         AIF   (T'&LENGTH EQ 'O').P1       IF NO LENGTH, SKIP RECOMPUTE
         AIF   (T'&LENGTH EQ 'N' OR T'&LENGTH EQ 'U').OKLENTH   IS THE
.*             LENGTH ATTRIBUTE SELF-DEFINING OR EQU'ED TO SOME SYMBOL?
         MNOTE 4,'*** LENGTH OPERAND (3RD) INVALID. IT IS NOT SELF-'
         MNOTE '    DEFINING OR IS NOT EQU ED TO A VALID SYMBOL.'
         AGO   .P1
.OKLENTH ANOP
&WORK1   SETA  72+&LENGTH          COMPUTE FREEMAIN SIZE
.P1      L     0,=A(&WORK1.)            LENGTH OF AREA TO BE FREED
         FREEMAIN R,LV=(0),A=(1)
.RESET   LR    13,14               RESET SAVEAREA POINTER
         LM    14,12,12(13)        RESTORE GPREGS
         AIF   (T'&T EQ 'O').RETURN         RETURN INDICATION DESIRED?
         AIF   ('&T' NE 'T').BADT             CORRECT CODE (T)?
.RETFLAG MVI   12(13),X'FF'        INDICATE RETURN TO CALLING PROGRAM
.RETURN  BR    14                  RETURN TO CALLING PROGRAM
         SPACE 1
         MEXIT
.BADSAVE SPACE 1
         MNOTE 4,'*** REGS TO BE SAVED NOT IN RANGE 0-12. IGNORED.'
         SPACE 1
         AGO   .CHECKNR
.SAMSAVE SPACE 1
         MNOTE 4,'*** REGS SPECIFIED FOR SAVING ARE AN INVALID RANGE.'
         MNOTE '      TREATED AS SAVE ONE REGISTER ONLY.'
         SPACE 1
.ONESAVE ANOP
&OFFSET  SETA  &WORK1*4+20         COMPUTE OFFSET INTO SAVEAREA
         ST    &WORK1,&OFFSET.(0,14)          SAVE SPECIFIED REGISTER
         AGO   .CHECKNR
.TOOMANY SPACE 1
      MNOTE 4,'*** TOO MANY REGS TO SAVE. 1ST && 2ND TAKEN AS A RANGE.'
         SPACE 1
         AGO   .IGNORE
.INREG   AIF   (&CODE(1) GT 15 OR &CODE(1) LT 0 ).BADCODE
         AIF   (&CODE(1) EQ 15).STORE15     CODE IS ALREADY IN REG15
         ST    &CODE(1).,16(0,14)         STORE RETCD IN REG15 SAVESPOT
         AGO   .CKSAVE
.BADNR   SPACE 1
       MNOTE *,'*** IMPROPER 5TH OPND, ''NR'' (NON-REENTRANT) ASSUMED.'
         SPACE 1
         AGO   .RESET
.BADT    SPACE 1
         MNOTE *,'*** IMPROPER 4TH OPND, ''T'' (FLAG RETURN) ASSUMED.'
         SPACE 1
         AGO   .RETFLAG
.STORE2  STM   &WORK1,12,&OFFSET.(14)         SPLIT REGS TO BE SAVED
         STM   0,&WORK2,20(14)            INTO TWO GROUPS
         AGO   .CHECKNR
.BADCODE SPACE 1
         MNOTE 4,'*** RETURN CODE NOT 0-4095 OR NOT IN VALID GPREG.'
         MNOTE '      ZERO WILL BE USED INSTEAD.'
         SPACE 1
.NOCODE  SR    15,15               ZERO REGISTER 15.
         AGO   .STORE15
         MEND
         EJECT
         MACRO
&NAME    SPLOC &PAR1,&PAR2,&PAR3,&PAR4,&MF=
         LCLA  &A1,&A2
         LCLB  &B(6)
         LCLC  &C
&A1      SETA  1792                                         *HMD 02/80*
&A2      SETA  4352
         AIF   (T'&NAME EQ 'O').GB1
&C       SETC  '&NAME'
.GB1     ANOP
&B(1)    SETB  (T'&MF EQ 'O')
         AIF   (N'&MF GT 2).E1
&B(2)    SETB  (T'&PAR1 NE 'O' AND '&PAR1' EQ 'NAME')
&B(3)    SETB  (T'&PAR2 NE 'O')
&B(4)    SETB  (T'&PAR3 NE 'O')
&B(5)    SETB  (T'&PAR4 NE 'O')
&B(6)    SETB  (N'&MF EQ 1)
         AIF   (NOT &B(2)).E2
         AIF   (&B(1)).SFORM
         AIF   ('&MF(1)' EQ 'L').LFORM
         AIF   ('&MF(1)' NE 'E').E1
         AIF   (T'&MF(2) EQ 'O').E7
         AIF   ('&MF(2)'(1,1) EQ '(').EB1
&C       LA    1,&MF(2)
&C       SETC  '        '
         AGO   .EB2
.EB1     AIF   ('&MF(2)'(1,3) NE '(1)').E5
.EB2     AIF   (NOT &B(3)).EB3
         AIF   ('&PAR2'(1,1) EQ '(').EREG1
&C       LA    15,&PAR2
&C       SETC  '        '
         ST    15,4(1)
         AGO   .EB3
.EREG1   ST    &PAR2(1),4(1)
.EB3     AIF   (NOT &B(4)).EB4
         AIF   ('&PAR3'(1,1) EQ '(').EREG2
&C       LA    15,&PAR3
&C       SETC  '        '
         ST    15,8(1)
         AGO   .EB4
.EREG2   ST    &PAR3(1),8(1)
.EB4     AIF   (NOT &B(5)).EB5
         AIF   ('&PAR4'(1,1) EQ '(').EREG3
&C       LA    15,&PAR4
&C       SETC  '        '
         ST    15,12(1)
         AGO   .EB5
.EREG3   ST    &PAR4(1),12(1)
.EB5     ANOP
&C       SVC   26
         MEXIT
.SFORM   AIF   (NOT &B(3)).E3
         AIF   (NOT &B(5)).E4
         CNOP  0,4
&C       BAL   1,*+28
         DC    H'&A1.,&A2.'
         DC    5A(0)
         AIF   ('&PAR2'(1,1) EQ '(').SREG1
         LA    15,&PAR2
         ST    15,4(1)
         AGO   .SB1
.SREG1   ST    &PAR2(1),4(1)
.SB1     AIF   (NOT &B(4)).SB2
         AIF   ('&PAR3'(1,1) EQ '(').SREG2
         LA    15,&PAR3
         ST    15,8(1)
         AGO   .SB2
.SREG2   ST    &PAR3(1),8(1)
.SB2     AIF   ('&PAR4'(1,1) EQ '(').SREG3
         LA    15,&PAR4
         ST    15,12(1)
         AGO   .SB3
.SREG3   ST    &PAR4(1),12(1)
.SB3     SVC   26
         MEXIT
.LFORM   AIF   (&B(6)).LB1
         AIF   ('&MF'(2,1) EQ '(').E5
         AGO   .E6
.LB1     CNOP  0,4
&C       DC    H'&A1.,&A2.'
         AIF   (&B(3)).LB2
         DC    A(0)
         AGO   .LB3
.LB2     DC    A(&PAR2.)
.LB3     AIF   (&B(4)).LB4
         DC    A(0)
         AGO   .LB5
.LB4     DC    A(&PAR3.)
.LB5     AIF   (&B(5)).LB6
         DC    3A(0)
         MEXIT
.LB6     DC    A(&PAR4.,0,0)
         MEXIT
.E1      WBCERMAC 4,4
         MEXIT
.E2      WBCERMAC 1
         MEXIT
.E3      WBCERMAC 2
         MEXIT
.E4      WBCERMAC 3
         MEXIT
.E5      WBCERMAC 4,2
         MEXIT
.E6      WBCERMAC 4,3
         MEXIT
.E7      WBCERMAC 4,1
         MEND
         EJECT
***********************************************************************
**        L I S T C X -  PROGRAM TO LIST CATALOG AND VTOC            **
**                    BY INDEX LEVELS                                **
***********************************************************************
LISTCX   CSECT
STARTLST ENTERE 12,*,LGOTMAIN
         USING GOTMAIN,R13    ESTABLISH DSECT ADDRESSIBILITY
         LR    R11,R1         SAVE CPPL ADDR
         USING CPPL,R11       ESTABLISH CPPL ADDRESSIBILITY
         LA    R10,PPLAREA    LOAD PPL ADDR
         USING PPL,R10        ESTABLISH PPL ADDRESSIBILITY
         MVC   PPLUPT,CPPLUPT MOVE UPT ADDR TO PPL
         MVC   PPLECT,CPPLECT MOVE ECT ADDR TO PPL
         LA    R1,ECB         LOAD ECB ADDR
         ST    R1,PPLECB      AND STORE IT IN PPL
         MVC   PPLPCL,APCL    MOVE PCL ADDR TO PPL
         LA    R1,SAVEADDR    LOAD PDL ADDR ADDR
         ST    R1,PPLANS      AND STORE IT IN PPL
         MVC   PPLCBUF,CPPLCBUF MOVE CBUF TO PPL
         CALLTSSR EP=IKJPARS,MF=(E,PPL)
         LTR   R15,R15        IS RC = 0
         BNZ   ABEND          IF NOT PARSE FAILED
         DROP  R10            RELEASE PPL ADDRESSIBILITY
         LA    R10,IOPLAREA   LOAD IOPL ADDR
         USING IOPL,R10       ESTABLISH IOPL ADDRESSIBILITY
         MVC   IOPLUPT,CPPLUPT MOVE UPT ADDR TO IOPL
         MVC   IOPLECT,CPPLECT MOVE ECT ADDR TO IOPL
         ST    R1,IOPLECB     AND STORE IT IN IOPL
         LA    R1,PUTLINED    LOAD PTPB ADDR
         ST    R1,IOPLIOPB    AND STORE IT IN IOPL
         DROP  R10            RELEASE IOPL ADDRESSIBILITY
         MVC   SLOCLSTD,SLOCLST INITIALIZE SUPERLOCATE LIST
         MVC   LOCLSTD,LOCLST INITIALIZE LOCATE LIST
         MVC   OBTLSTD1,OBTLST1 INITIALIZE FMT1 OBTAIN LIST
         MVC   OBTLSTD2,OBTLST2 INITIALIZE FMT3 OBTAIN LIST
         MVC   PUTLINED,PUTLINE INITIALIZE PTPB
         LA    R1,49          LOAD MSG2D LENGTH
         STH   R1,MSG2D       AND STORE IT IN MSG2D
         LA    R1,83          LOAD MSG4D LENGTH
         STH   R1,MSG4D       AND STORE IT IN MSG4D
         LA    R1,44          LOAD MAX DSN LENGTH
         STH   R1,DSNL        AND STORE IT
         MVI   MSG2SPC,C' '   CLEAR MSG2D
         MVC   MSG2DSN(44),MSG2SPC CLEAR IT ALL
         MVI   MSG4SPC,C' '   INITIALIZE MSG4D
         MVC   MSG5D(83),MSG5 INITIALIZE MSG5D
         LA    R1,36          LOAD EMSG4D LENGTH
         STH   R1,EMSG4D      AND STORE IT IN EMSG4D
         MVC   EMSG5D(41),EMSG5 INITIALIZE MSG5D
         MVC   EDITWRDD,EDITWRD INITIALIZE EDITWRDD
         LA    R1,OLD         LOAD OLD ADDR
         ST    R1,PUTLINED+4  AND STORE IT IN PTPB
         LA    R1,1           LOAD NO OF SEGMENTS
         ST    R1,OLD         AND STORE IT IN OLD
         MVI   INDEX,C' '     CLEAR INDEX
         MVC   INDEX+1(L'INDEX-1),INDEX CLEAR IT ALL
         L     R9,SAVEADDR    LOAD PDL ADDR
         USING IKJPARMD,R9    ESTABLISH PDL ADDRESSIBILITY
         TM    LVLNAME+6,X'80' IS INDEX LEVEL SPECIFIED
         BO    LVLRTNE        IF SO SET UP INDEX FROM LEVEL
         L     R2,CPPLUPT     LOAD UPT ADDR
         LA    R2,16(R2)      LOAD UPT USERID ADDR
         L     R3,CPPLPSCB    LOAD PSCB ADDR
         DROP  R11            RELEASE CPPL ADDRESSIBILITY
         MVC   MSG1TEXT(10),USERID
         IC    R1,7(R3)       INSERT USERID LENGTH
         BCTR  R1,0           DECREMENT FOR EXECUTE
         LA    R4,MSG1USID
         EX    R1,MOVE
         LA    R4,1(R1,R4)
         MVC   0(11,R4),PREFIX
         LA    R4,11(R4)
         LR    R3,R2
         IC    R1,7(R3)       INSERT PREFIX LENGTH
         BCTR  R1,0           DECREMENT FOR EXECUTE
         EX    R1,MOVE
         LA    R4,1(R1,R4)
         LA    R2,MSG1D
         SR    R4,R2
         STH   R4,MSG1D
         ST    R2,OLDMSG      STORE MSG1D ADDR IN OLD
         LR    R2,R1          SAVE EXECUTE LENGTH FOR INDEX MOVE
         BAL   R14,PUTLRTNE   AND PUTL IT
         LR    R1,R2          RESTORE EXECUTE LENGTH FOR INDEX MOVE
LVLBACK  LA    R4,INDEX+1
         LA    R2,2(R1)       INCREMENT INDEX LENGTH (FOR PERIOD)
         STC   R2,INDEX       AND STORE IT IN INDEX AREA
         EX    R1,MOVE        MOVE INDEX
         LA    R4,1(R1,R4)    INCREMENT INDEX ADDR
         MVI   0(R4),C'.'     MOVE IN PERIOD
         CLI   NODSNAME+1,X'00' IS NODS KEYWORD PRESENT
         BE    TESTDIR        IF NOT BYPASS INDICATION
         XI    SW,X'80'       OTHERWISE INDICATE NODS
TESTDIR  CLI   DIRBLKS+1,X'00' IS DIRBLKS PARAMETER PRESENT
         BE    NODIR          IF NOT BYPASS DIRECTORIES CALCULATION
         OI    SW,X'02'       INDICATE DIRBLKS CALCULATION TO BE DONE
NODIR    IKJRLSA (9)
         L     R2,F64K        LOAD GETMAIN LENGTH           *HMD 01/80*
         GETMAIN RU,LV=(2)
         LTR   R15,R15        CHECK GETMAIN RC              *HMD 02/80*
         BNZ   GETMERR        NO STORAGE FOR GETMAIN        *HMD 02/80*
         STCM  R2,3,0(R1)     STORE LENGTH OF AREA IN AREA
         LR    R2,R1          LOAD AREA ADDR
         MVC   2(2,R2),=X'0004'
* SET SECOND HALFWORD OF AREA TO TOTAL LENGTH USED          *HMD 02/80*
         LA    R1,SLOCLSTD    GET PARM LIST ADDRESS         *HMD 02/80*
         XC    16(12,R1),16(R1)   CLEAR WORK AREA           *HMD 02/80*
         SPLOC NAME,INDEX,,(2),MF=(E,SLOCLSTD)
         LTR   R15,R15        IS RC = 0
         BZ    INDOK          YES, IS OK                    *HMD 02/80*
         CH    R15,=H'44'     DID WE RUN OUT OF SPACE?      *HMD 02/80*
         BE    INDOK          YES, JUST LIST WHAT'S THERE   *HMD 02/80*
         B     SLOCERR1       IF NOT ISSUE ERROR MSG AND TERMINATE
INDOK    SR    R1,R1          CLEAR FOR ICM                 *HMD 02/80*
         ICM   R1,3,2(R2)     LOAD RETURNED DATA LENGTH
         LTR   R1,R1          IS IT = 0
         BZ    SLOCERR2       IF SO ISSUE ERROR MSG AND TERMINATE
         LA    R1,MSG4SER     LOAD VOLUME ADDR
         ST    R1,OBTLSTD1+8  AND STORE IT IN FMT1 OBTAIN LIST
         ST    R1,OBTLSTD2+8  AND FMT3
         LA    R1,LOCAREA     LOAD LOCATE WORKAREA ADDR
         ST    R1,LOCLSTD+12  AND STORE IT IN LOCATE LIST
         LA    R1,DSCB1       LOAD FMT1 OBTAIN WORKAREA ADDR
         ST    R1,OBTLSTD1+12 AND STORE IT IN FMT1 OBTAIN LIST
         LA    R1,DSCB3       LOAD FMT3 OBTAIN WORKAREA ADDR
         ST    R1,OBTLSTD2+12 AND STORE IT IN FMT3 OBTAIN LIST
         LH    R4,2(R2)       LOAD DSN AREA LENGTH
         LA    R3,0(R4,R2)    LOAD DSN AREA END ADDR
         SH    R2,H40         DECREMENT AREA ADDR BY 40 FOR LOOP
NEXTDSN  LA    R2,45(R2)      INCREMENT DSN AREA ADDR
         CR    R2,R3          IS IT THE END
         BNL   ENDITALL       IF SO ISSUE TOTAL MSG AND TERMINATE
         BCTR  R2,0           SEE IF CLUSTER                *HMD 10/80*
         CLI   0(R2),C'C'     IS THIS A CLUSTER ENTRY?      *HMD 10/80*
         BE    EXCLUDE        YES, FORGET IT                *HMD 10/80*
         CLI   0(R2),C'G'     IS THIS A ALTERNATE INDEX?    *HMD 10/80*
         BE    EXCLUDE        YES, UNABLE TO LIST           *HMD 10/80*
         CLI   0(R2),C'R'     IS THIS A PATH ENTRY??        *HMD 10/80*
         BE    EXCLUDE        YES, OBTAIN IS USELESS        *HMD 10/80*
         LA    R2,ONE(R2)     BUMP POINTER                  *HMD 10/80*
         MVC   MSG4ALOC(79),MSG4SPC CLEAR MSG4D
         MVC   MSG2DSN,0(R2)  MOVE CURRENT DSN TO OUTPUT AREA
         LA    R1,MSG2D       LOAD DSN MSG ADDR
         ST    R1,OLDMSG      AND STORE IT IN OLD
         BAL   R14,PUTLRTNE   PUTL IT
         ST    R2,LOCLSTD+4   STORE DSN ADDR IN LOCATE LIST
         ST    R2,OBTLSTD1+4  AND IN FMT1 OBTAIN LIST
         LOCATE LOCLSTD
         LTR   R15,R15        IS RC = 0
         BNZ   LOCERR         IF NOT ISSUE APPROPRIATE ERROR MSG
         LH    R5,LOCAREA     LOAD NO OF VOLUMES
         LA    R4,LOCAREA+2   LOAD DEVICE TYPE ADDR
         CH    R5,H12         IS NO OF VOLUMES GT 12
         BNH   VOLLOOP        IF NOT BYPASS SETTING IT ANY FURTHER
         LA    R5,12          OTHERWISE SET NO OF VOLUMES TO 12
         B     VOLLOOP        BRANCH AROUND EXCLUDE CODE    *HMD 10/80*
EXCLUDE  LA    R2,ONE(R2)     BUMP POINTER TO DSN LIST      *HMD 10/80*
         B     NEXTDSN        GET NEXT DATA SET NAME        *HMD 10/80*
VOLLOOP  MVC   MSG4SER,4(R4)  MOVE VOL SER TO MSG4D
         CLI   2(R4),X'20'    IS IT A DASD DEVICE
         BNE   NOTDASD        IF NOT INDICATE DSN NOT ON DASD
         LA    R1,DEVTABLE-11 LOAD DEVICE TABLE ADDR
NEXTDEV  LA    R1,11(R1)      INCREMENT DEVICE TABLE PTR
         CLC   0(2,R1),X00L5  IS IT THE END OF THE TABLE
         BE    UNKNOWN        IF SO INDICATE UNKNOWN DEVICE TYPE
         CLC   0(2,R1),2(R4)  COMPARE DEVICE CODE
         BNE   NEXTDEV        IF NOT TRY NEXT ENTRY
         MVC   MSG4DEV,4(R1)  MOVE DEVICE NAME TO MSG4D
         MVC   TRKPRCYL,2(R1) ALSO TRKS PER CYL
UNKNOWNX OBTAIN OBTLSTD1      READ FMT 1 DSCB
         LTR   R15,R15        IS RC = 0
         BNZ   OBTERR         IF NOT ISSUE ERROR MSG AND PROCEED
         LA    R6,DSCB1       LOAD FMT1 DSCB ADDR
         USING DS1FMTID,R6
         TM    SW,X'04'       HAS MSG3 BEEN PUTLED
         BNZ   NOMSG3         IF SO BYPASS PUTLING IT AGAIN FOR DSN
         OI    SW,X'04'       INDICATE MSG3 HAS BEEN PUTLED
         LA    R1,MSG3        LOAD MSG3 ADDR
         ST    R1,OLDMSG      STORE IT IN OLD
         BAL   R14,PUTLRTNE   AND PUTL IT
NOMSG3   SR    R9,R9          CLEAR WORK REGS
         LR    R10,R9         CLEAR THEM ALL
         SR    R1,R1          CLEAR THIS ONE TOO
         IC    R1,DS1NOEPV    LOAD NO OF EXTENTS
         BAL   R14,CONVERT    UNPACK AND UNSIGN IT
         MVC   MSG4XTNT,WORK1+6 MOVE NO OF EXTENTS TO MSG4D
         LR    R9,R1          RELOAD NO OF EXTENTS
         LTR   R9,R9          IS NO OF EXTENTS = 0
         BZ    DSORGVST       IF SO BYPASS SPACE CALCULATIONS
         LA    R8,3           LOAD NO OF EXTENTS TO BE PROCESSED
         LA    R11,DS1EXT1    LOAD 1ST EXTENT ADDR
         BAL   R14,ACCUMTRK   CALCULATE SPACE ALLOCATED TO 1ST THREE
         CLC   DS1PTRDS,X00L5 IS THERE A FMT3 DSCB
         BE    CALCUSED       IF NOT BYPASS FMT3 DSCB READ
         LA    R1,DS1PTRDS    LOAD CCHHR OF FMT3 DSCB
         ST    R1,OBTLSTD2+4  AND STORE IT IN OBTAIN LIST
         OBTAIN OBTLSTD2      READ FMT 3 DSCB
         LTR   R15,R15        IS RC = 0
         BNZ   OBTERR         IF NOT ISSUE ERROR MSG AND PROCEED
         LA    R7,DSCB3       LOAD FMT3 DSCB ADDR
         USING IECSDSL3,R7
         LA    R8,4           LOAD NO OF EXTENTS TO BE PROCESSED
         LA    R11,DS3EXTNT   LOAD 4TH EXTENT ADDR
         BAL   R14,ACCUMTRK   CALCULATE SPACE ALLOCATED TO NEXT FOUR
         LA    R8,9           LOAD NO OF EXTENTS TO BE PROCESSED
         LA    R11,DS3ADEXT   8TH EXTENT ADDR
         BAL   R14,ACCUMTRK   CALCULATE SPACE ALLOCATED TO NEXT NINE
CALCUSED ST    R10,TRKS       STORE TRKS ALLOCATED TO THIS DSN
         L     R8,TRKSALOC    LOAD ACCUMULATED TRKS ALLOCATED
         AR    R8,R10         INCREMENT ACCUMULATED TRKS ALLOCATED
         ST    R8,TRKSALOC    AND STORE IT
         TM    SW,X'80'       IS NODS OPTION PRESENT
         BO    BYPASS1        IF SO BYPASS THIS STUFF
         L     R1,TRKS        LOAD TRKS ALLOCATED TO THIS DSN ADDR
         BAL   R14,CONVERT    UNPACK AND UNSIGN IT
         MVC   MSG4ALOC,WORK1+4 AND MOVE IT TO MSG4D