MERGUPD  TITLE '-----  MERGE UPDATES  -----'                       LDW1
*=====================================================================*
*                                                                     *
*   PROGRAM NAME:  MERGUPD                                            *
*                                                                     *
*   AUTHOR:        LEONARD D. WOREN                                   *
*                                                                     *
*   DATE:          JULY 14, 1980                                      *
*                                                                     *
*   INSTALLATION:  GIBRALTAR SAVINGS AND LOAN                         *
*                                                                     *
*   PURPOSE:       APPLY MERGED UPDATES TO SOURCE MEMBERS.            *
*                                                                     *
*   HISTORY:       THIS PROGRAM IS A MODIFIED VERSION OF THE NIH      *
*                  PROGRAM "HSPMERGE", FROM FILE 17 OF THE JESMODS    *
*                  TAPE.  DOCUMENTATION IS ON FILE 16.                *
*                                                                     *
*   UPDATES:                                                          *
*      07/14/80 LDW1 - CHANGE PROGRAM NAME                            *
*                    - ADD CAPABILITY TO DO INSERTIONS WITH ONLY      *
*                      THE FIRST SEQUENCE NUMBER SPECIFIED            *
*                    - ADD REPLACE FEATURE (PARM=R)                   *
*                                                                     *
*=====================================================================*
         EJECT
         MACRO
&NAME    LOG   &LEV,&CC,&SP,&MSG
         LCLA  &TCC,&TSP
&NAME    BAL   R1,LOG&SYSNDX
&TCC     SETA  0
&TSP     SETA  0
         AIF   ('&CC' EQ '').CCOK
&TCC     SETA  &CC
.CCOK    AIF   ('&SP' EQ '').SPOK
&TSP     SETA  &SP
.SPOK    ANOP
         DC    AL1(&LEV,&TCC,&TSP,L'MSG&SYSNDX)
MSG&SYSNDX DC    C&MSG
LOG&SYSNDX  BAL   R14,LOG
         MEND
         SPACE 2
         MACRO
         GENLEVS &LEVCT
         LCLA  &TEMP
&TEMP    SETA  &LEVCT+1
LEVELS   DC    0A(0)
.LAGN    ANOP
         DC    16X'FF',7A(0)
         AIF   (&TEMP NE &LEVCT+1).LNOLGT
         SPACE 1
LEVLEN   EQU   ((*-LEVELS+3)/4)*4
         SPACE 1
.LNOLGT  ANOP
&TEMP    SETA  &TEMP-1
         AIF   (&TEMP NE 0).LAGN
         MEND
         EJECT
         GBLA  &MAXLEVS,&TOTCHNG
&MAXLEVS SETA  50
&TOTCHNG SETA  500
         SPACE 3
LEVEL    DSECT
MODULE   DS    CL8
LEVNAME  DS    CL8
CARDPTR  DS    A
CURTTR   DS    F
BUFPTR   DS    A
CURBLOK  DS    H
BLKINCR  DS    H
CURSEQ   DS    CL8
SUPPL    DS    X                           EXTENSION OF SEQUENCE FIELD
TYPE     DS    X                           ADD OR CHNGE FLAG
         DS    2X
         EJECT
R0       EQU   0
R1       EQU   1
R2       EQU   2
R3       EQU   3
R4       EQU   4
R5       EQU   5
R6       EQU   6
R7       EQU   7
R8       EQU   8
R9       EQU   9
R10      EQU   10
R11      EQU   11
R12      EQU   12
R13      EQU   13
R14      EQU   14
R15      EQU   15
         SPACE 1
SOURCE   EQU   R2
START    EQU   R3
STOP     EQU   R4
WA       EQU   R5
WB       EQU   R6
WC       EQU   R7
WD       EQU   R8
WE       EQU   R9
RLL      EQU   R11
         TITLE '-----  MERGE UPDATES  -----  PASS1  -----'         LDW1
         SPACE 2
MERGUPD  CSECT ,                                                   LDW1
         SAVE  (14,12),,MERGUPD_&SYSDATE_&SYSTIME                  LDW1
         BALR  R12,0                    ADDRESSABILITY FOR CODE
         USING *,R12,R10
BASEADD  DS    0H
         L     R10,BASE2                SET UP SECOND BASE REG
         LA    R2,MERGSAVE              POINT TO OUR SAVE AREA
         ST    R13,4(,R2)               SATISFY LINKAGE CONVENTIONS
         ST    R2,8(,R13)               DITTO
         LR    R13,R2                   POINT R13 TO OUR SAVE AREA
         SPACE 1
         L     R1,0(,R1)                POINT TO PARM INFO
         LH    R2,0(,R1)                GET PARM BYTE COUNT
         LTR   R2,R2                    ZERO?
         BZ    PROCEED                  SKIP LOOP IF SO            LDW1
         LA    R1,1(R1,R2)              POINT TO LO-ORDER BYTE
CLINP    CLI   0(R1),C'D'               DEBUG OPTION
         BNE   *+8                      BR IF NOT
         MVI   DEBSW,1                  SET DEBUG SW ON
         CLI   0(R1),C'R'               REPLACE OPTION?            LDW1
         BNE   *+8                      BR IF NOT                  LDW1
         MVI   REPLSW,1                 SET REPLACE SW ON          LDW1
         CLI   0(R1),C'L'               DEFAULT LOG LEVEL CHANGE?
         BNE   *+10                     BR IF NOT
         MVC   ORIGLOG(2),1(R1)         PICK UP NEW DEFAULT
         BCTR  R1,0                     SHIFT LEFT ONE CHARACTER
         BCT   R2,CLINP                 LOOK AT ALL THE CHARACTERS
         SPACE 1
         B     PROCEED                  BEGIN PROGRAM
         SPACE 1
BASE2    DC    A(BASEADD+4096)
DEBSW    DC    AL1(0)                   DEBUG SW INITIALLY OFF
REPLSW   DC    AL1(0)                   REPLACE SW INITIALLY OFF   LDW1
         EJECT
         SPACE 15
*        DURING PASS1 REGISTERS ARE USED AS FOLLOWS:
*
*        R0    PARAMETER PASSING
*        R1        "        "
*        R2    UNUSED
*        R3       "
*        R4       "
*        R5    (WA) INDEX IN LEVELS TABLE
*        R6    (WB) POINTER TO CURRENT CARD IN INPUT BUFFER
*        R7    (WC) POINTER TO FIRST BYTE PAST BUFFER
*        R8    (WD) LOCAL WORK REG
*        R9    (WE) REMEMBERS CURRENT TTR
*        R10   SECOND BASE REG
*        R11   (RLL) LENGTH OF AN ENTRY IN LEVELS TABLE
*        R12   FIRST BASE REG
*        R13   POINTS TO OUR SAVE AREA
*        R14   ACCESS METHOD LINKAGE
*        R15   ACCESS METHOD LINKAGE
         EJECT
PROCEED  OPEN  (SYSIN,,SYSPRINT,(OUTPUT),ERRORS,(OUTPUT))
         TM    SYSIN+48,X'10'           SYSIN OK?
         BZ    BADDD                    BR IF NOT
         TM    SYSPRINT+48,X'10'        SYSPRINT?
         BZ    BADDD                    BR IF MISSING
         TM    ERRORS+48,X'10'          ERRORS DD STATEMENT?
         BO    OPENBPAM                 BR IF ALL OK
BADDD    WTO   '*** MERGUPD *** MISSING SYSIN/SYSPRINT/ERRORS DD STATEM$
               ENT(S)'                                             LDW1
ABEND    ABEND 16,DUMP
         SPACE 2
OPENBPAM OPEN  (SYSUT2,(OUTPUT),SYSUT1,(INPUT)) OPEN BPAM DATA SETS
         LH    R1,SYSIN+DCBBLKSI-IHADCB LOAD MAX BLOCKSIZE
         M     R0,=A(&MAXLEVS)          TIMES MAX NO. OF LEVELS
         ST    R1,SIZE1                 SET IN LIST
         LH    R1,SYSUT1+DCBBLKSI-IHADCB  LOAD MAX BLOCKSIZE
         SLL   R1,1                     DOUBLE FOR DOUBLE BUFFERING
         ST    R1,SIZE2                 SET IN LIST
         LH    R1,SYSUT2+DCBBLKSI-IHADCB LOAD MAX BLOCKSIZE
         ST    R1,SIZE3                 SET
         OI    SIZE3,X'80'              TERMINATE LIST
         GETMAIN LU,LA=SIZE1,A=LOCS1    GET BUFFER SPACE
         MVI   SIZE3,0                  CLEAR HI BYTE
         USING LEVEL,WA                 UNTIL FURTHER NOTICE
         LA    RLL,LEVLEN               VALID THROUGHOUT PROGRAM
         LA    WA,LEVELS-LEVLEN         INITIAL SETTING
         B     P1GO                     PROCEED
         SPACE 1
P1NREC   LA    WB,80(,WB)               BUMP TO NEXT CARD
         CR    WB,WC                    PAST END OF BLOCK?
         BL    P1BLOKOK                 BR IF NOT
P1GO     DS    0H                       ENTER HERE FIRST TIME
         L     0,SYSINBF                POINT TO BUFFER
         READ  P1DECB,SF,SYSIN,(0),'S'
         CHECK P1DECB
         NOTE  SYSIN
         LR    WE,R1                    REMEMBER CURRENT TTR
         ST    WE,DBLWK                 GET IT INTO CORE
         UNPK  WSTR(7),DBLWK(4)         MAKE IT PRETTY
         MVC   PL1LOC+12(6),WSTR        MOVE INTO MESSAGE
         TR    PL1LOC+12(6),UPTOHEX       "   "    "
         LH    WC,SYSIN+DCBBLKSI-IHADCB GET MAX COUNT
         L     R1,P1DECB+16             R1 --> IOB
         SH    WC,14(,R1)               SUBTRACT RESID COUNT FROM CSW
         L     WB,SYSINBF               -> FIRST CARD IMAGE IN BUFR
         AR    WC,WB                    -> FIRST BYTE PAST BUFFER
         SPACE 1
P1BLOKOK DS    0H
         CLI   DEBSW,1                  DEBUGGING?
         BNE   NDB1                     BR IF NOT
         LR    R0,WB                    POINT AT CURRENT CARD
         S     R0,SYSINBF               GET BUFFER OFFSET
         ST    R0,DBLWK                 STORE IT
         UNPK  WSTR(5),DBLWK+2(3)       SPREAD IT OUT
         MVC   PL1LOC+27(4),WSTR        MOVE INTO MESSAGE
         TR    PL1LOC+27(4),UPTOHEX     MAKE IT LOOK RIGHT
         LR    R0,WB                    GET BUFFER LOC AGAIN
PL1LOC   LOG   HIGH,,1,'TTR=______, OFFSET=____'
NDB1     CLC   0(3,WB),=C'./ '          CONTROL CARD?
         BNE   P1NREC                   BR IF NOT
         LA    R1,2(,WB)                SET FOR SCANNING
         LA    R0,72(,WB)
         BAL   R14,SCANVERB             GET THE VERB
         CLC   SCANOUT(8),=CL8'LEVEL'
         BE    P1LEVEL
         CLC   SCANOUT(8),=CL8'CHNGE'
         BE    P1CHNGE
         CLC   SCANOUT(8),=CL8'CHANGE'
         BE    P1CHNGE
         CLC   SCANOUT(8),=CL8'ADD'
         BE    P1ADD
         CLC   SCANOUT(8),=CL8'REPL'
         BE    P1REPL
         B     P1NREC                   IGNORE OTHERS FOR NOW
         SPACE 1
P1REPL   LR    R0,WB                    LOG THE CARD
         LOG   ERR,16,,'REPL ILLEGAL   *** ERROR'
*
P1ADD    AR    WA,RLL                   NEXT ENTRY
         C     WA,=A(LEVELS+&TOTCHNG*LEVLEN)
         BNL   P1OVER
         MVI   TYPE,1                   SET ADD TYPE
         B     P1NLEV
         SPACE 1
P1CHNGE  DS    0H
         AR    WA,RLL                   WA --> NEXT TABLE ENTRY
         C     WA,=A(LEVELS+(&TOTCHNG)*LEVLEN)  STILL WITHIN TABLE?
         BL    P1NLEV                   BR IF SO TO CONTINUE
P1OVER   LR    R0,WB                    LOG THE CARD
         SPACE 1
         LOG   ERR,16,,'&&TOTCHNG (&TOTCHNG) EXCEEDED  *** ERROR'
         B     ABEND
         SPACE 1
P1BADCH  LR    R0,WB
         LOG   ERR,16,,'MEMBER NAME MISSING   *** ERROR'
         B     ABEND
         SPACE 1
P1NLEV   DS    0H
         CR    R1,R0                    END OF CARD?
         BNL   P1BADCH                  BR IF SO
         CLC   0(5,R1),=C'NAME='        IEBUPDTE TYPE?
         BNE   *+8                      BR IF NOT
P1CHNM   LA    R1,5(,R1)                BUMP OVER NAME=
         BAL   R14,SCANFLD              GET THE NAME
P1CHFNM  CR    R1,R0                    END OF CARD?
         BNL   P1CHCK                   BR IF SO
         CLI   0(R1),C' '               END OF PARMS?
         BE    P1CHCK                   BR IF SO
         CLC   0(5,R1),=C'NAME='        IEBUPDTE?
         BE    P1CHNM                   BR IF SO
         BAL   R14,SCANNBC              SCAN TO NEXT
         B     P1CHFNM
*
P1CHCK   CLI   SCANOUT,C' '             NAME FOUND?
         BE    P1BADCH                  BR IF NOT
         ST    WE,CURTTR                SAVE STARTING TTR FOR THIS LEV
         SPACE 1
         LR    WD,WB                    COMPUTE
         S     WD,SYSINBF                 CURRENT CARD
         STH   WD,BLKINCR                   OFFSET & SAVE IT
         SPACE 1
         MVC   MODULE,SCANOUT           SAVE MODULE NAME
         MVC   LEVNAME,CURLEVEL         SAVE MODIFICATION LEVEL
         B     P1NREC                   GO BACK FOR NEXT CARD
         SPACE 1
P1LEVEL  DS    0H
         BAL   R14,SCANFLD              EXTRACT THE LEVEL-ID
         CLC   SCANOUT,=CL8' '          BLANK LEVEL?
         BE    P1BADLV                  YUP
         MVC   CURLEVEL,SCANOUT         SAVE IT IN CURLEVEL
         SPACE 1
         LA    WD,HASPSRC               SET TO SCAN PREV LEVS FOR DUP
P1LCLC   CLC   CURLEVEL,LEVNAME-LEVEL(WD)  FIND A MATCH?
         BE    P1LERR                   BR IF YES
         AR    WD,RLL                   STEP TO NEXT ENTRY
         CR    WD,WA                    ARE WE PAST THE END?
         BNH   P1LCLC                   BR IF NO TO LOOK AGAIN
         B     P1NREC                   GO GET THE NEXT CARD
         SPACE 1
P1LERR   LR    R0,WB                    POINT TO BAD CARD FOR LOGGING
         LOG   ERR,16,,'DUPLICATE LEVEL ALREADY EXISTS  *** ERROR'
         B     ABEND
         SPACE 1
         DROP  WA
*
P1BADLV  LOG   ERR,20,,'LEVEL NAME MISSING   *** ERROR'
         B     ABEND
         SPACE 1
UPTOHEX  EQU   *-C'0'                   SAVE SPACE
         DC    C'0123456789ABCDEF'      FOR TRANSLATION
         TITLE '-----  MERGE UPDATES  -----  PASS2  -----'         LDW1
         SPACE 2
***** COMMENTS ON REGISTER USAGE DURING PASS2 ***
         SPACE 15
*        R0    PARAMETER PASSING
*        R1        "        "
*        R2    (SOURCE) --> HASP SOURCE ENTRY IN LEVEL TABLS
*        R3    (START)  --> STARTING ENTRY IN LEVELS SUBSET
*        R4    (STOP) --> ENDING ENTRY IN LEVELS SUBSET BEING PROCESSED
*        R5    (WA) --> LEVELS ENTRY BEING PROCESSED
*        R6    (WB) VARIOUS USES
*        R7    (WC) VARIOUS USES
*        R8    (WD) VARIOUS USES
*        R9    (WE) VARIOUS USES
*        R10   SECOND BASE REG
*        R11   (RLL) CONTAINS LEVLEN
*        R12   FIRST BASE REG
*        R13   POINTS TO MERGSAVE
*        R14   SUBROUTINE AND ACCESS METHOD LINKAGE
*        R15   ACCESS METHOD LINKAGE
         EJECT
         SPACE 1
PASS2    DS    0H
         MVC SYSIN+DCBEODAD-IHADCB+1(3),=AL3(P2EODAD) SET PASS2 EOD ADR
SORT     DS    0H
         USING LEVEL,WA
         SPACE 1
NXTPASS  LA    WA,LEVELS                -> FIRST MODIFICATION LEVEL
         MVI   QUITSW+1,0               SET SW TO FALL THROUGH
NXTPAIR  DS    0H
         LA    WB,0(WA,RLL)             -> ENTRY FOLLOWING WA
         CLC   MODULE-LEVEL(8,WB),MAXSEQ  ALL DONE?
         BE    QUITSW                   BR IF SO
         CLC   MODULE,MODULE-LEVEL(WB)  DOES THIS PAIR NEED SWITCHING?
         BNH   NSWAP                    BR IF NOT
         SPACE 1
         XC    0(LEVLEN,WA),0(WB)       3 INSTR SWAP WITHOUT BUFFER
         XC    0(LEVLEN,WB),0(WA)                  ''
         XC    0(LEVLEN,WA),0(WB)                  ''
         MVI   QUITSW+1,X'F0'           NOTE THAT SOMEBODY MOVED
         SPACE 1
NSWAP    LR    WA,WB                    GO TO NEXT PAIR
         B     NXTPAIR
         SPACE 1
QUITSW   BC    *-*,NXTPASS              DO IT AGAIN IF ANYTHING MOVED
         EJECT
         SPACE 2
         LA    START,LEVELS             -> FIRST MODIFICATION ENTRY
         SPACE 1
P2CKEND  CLC   MODULE-LEVEL(8,START),MAXSEQ   ALL LEVS PROCESSED
         BNE   P2G0                     BR IF NO
         SPACE 1
         MVC   FINMSG+39(2),CHCODE      INSERT RESULTING CC IN MSG
         SR    R0,R0                    NO CARD TO LOG
FINMSG   LOG   HIGH,0,,'END OF MERGE, CONDITION CODE =   '
         CLOSE (SYSUT1,,SYSUT2,,SYSIN,,SYSPRINT,,ERRORS) CLOSE EVERYONE
         L     R15,HEXCODE              SET COND CODE IN R15
         L     R13,4(,R13)              BACK UP SAVE POINTER
         L     R14,12(,R13)             RELOAD OS RETURN POINT
         LM    R0,R12,20(R13)           RELOAD OTHER REGS
         BR    R14                      RETURN TO OS
         EJECT
P2G0     DS    0H
         LR    STOP,START             GET SET TO FORM SUBSET BOUNDARIES
         L     WB,SYSINBF               WB USED FOR ASSIGNING BUFFERS
         LH    R15,SYSIN+DCBBLKSI-IHADCB  LOAD CONSTANT
         LA    R14,&MAXLEVS             LEVEL COUNT
P2BUFOK  ST    WB,BUFPTR-LEVEL(STOP)    ASSIGN BUFFER TO CURRENT LEVEL
         LA    WA,0(STOP,RLL)           POINT TO NEXT LEVEL'S ENTRY
         CLC   MODULE-LEVEL(8,STOP),MODULE-LEVEL(WA)  SAME MODULE?
         BNE   P2GSTOP                  END SUBSET IF NOT
         LR    STOP,WA                  BUMP TO NEXT ENTRY
         AR    WB,R15                   SET TO NEXT
         BCT   R14,P2BUFOK              SOME MORE?
*
         MVC   LEVX+35(8),MODULE        INSERT MODULE NAME IN ERROR MSG
LEVX     LOG   ERR,20,,'&&MAXLEVS (&MAXLEVS) EXCEEDED FOR           ***$
                ERROR'
         MVC   MODULE-LEVEL(8,START),MAXSEQ  JUMP TO THE END
         B     P2CKEND
         SPACE 1
P2GSTOP  DS    0H
         LR    SOURCE,START             SET TO MOVE SOURCE ENTRY
         SR    SOURCE,RLL               PRECEDING START OF MODS
         MVC   0(LEVLEN,SOURCE),HASPSRC MOVE IT
         MVC   CURSEQ-LEVEL(8,SOURCE),MINSEQ  RESET SEQ FOR NEXT MODULE
         MVC   CURMOD(8),MODULE-LEVEL(START)  SET NEW MEMBER NAME
         L     R1,SYST1BF               POINT TO BUFFER SPACE
         ST    R1,P2DECBX+12            STORE IN DECB
         AH    R1,SYSUT1+DCBBLKSI-IHADCB  PT TO ALT BUFFER
         ST    R1,BUFPTR-LEVEL(,SOURCE) PLANT POINTER
         SPACE 1
         CLI   TYPE-LEVEL(START),0 ADD?
         BNE   P2NOSRC                  BR IF SO
         FIND  SYSUT1,CURMOD,D          POINT AT MEMBER
         LTR   R15,R15                  FOUND?
         BZ    P2MFOUND                 BR IF SO
         SR    R0,R0                    NO CARD TO LOG
         ST    R0,LOGLNES               FORCE PAGE EJECT
         MVC   MISSMOD+15(8),CURMOD     PUT NAME IN MSG
MISSMOD  LOG   ERR,20,,'MODULE XXXXXXXX NOT FOUND IN SOURCE - WILL BE A*
               DDED   *** ERROR'
         MVC   CURSEQ-LEVEL(8,SOURCE),MAXSEQ SET EOF ON SOURCE
         B     P2MODSET
         EJECT
         SPACE 1
P2MFOUND DS    0H
         MVC   BEGMOD+35(8),CURMOD      SET MEMBER NAME IN MSG
         SR    R0,R0                    NO CARD TO LOG
         ST    R0,LOGLNES               FORCE EJECT FOR THIS MESSAGE
BEGMOD   LOG   HIGH,,,'BEGINNING UPDATE OF MODULE MMMMMMMM'
         READ  P2DECBX,SF,MF=E          START READING 1ST SOURCE RECORD
         SR    R0,R0
         STH   R0,BLKINCR-LEVEL(,SOURCE) RESET TO START OF BLOCK
         STH   R0,CURBLOK-LEVEL(,SOURCE)
         B     P2MODSET
*
P2NOSRC  MVC   ADDMOD+15(8),CURMOD      PUT NAME IN MSG
         SR    R0,R0                    NO CARD TO LOG
         ST    R0,LOGLNES               FORCE EJECT FOR THIS MESSAGE
ADDMOD   LOG   HIGH,,,'MODULE XXXXXXXX ADDED TO SOURCE'
         MVC   CURSEQ-LEVEL(8,SOURCE),MAXSEQ SET EOF ON SOURCE
*
P2MODSET MVC   CURLOG,ORIGLOG           START NEW MODULE WITH DEFAULT
         LR    WA,SOURCE                PREPARE TO PRIME ALL INPUT LVLS
P2PRIME  LR    R1,WA                    SET P2READ PARAMETER REG
         BAL   R14,P2READ               PRIME NEXT LEVEL
         AR    WA,RLL                   BUMP TO NEXT LEVEL
         CR    WA,STOP                  END OF SUBSET?
         BNH   P2PRIME                  BR IF NOT FOR NEXT LEVEL
         SPACE 1
P2NCARD  DS    0H
         MVI   OVFLGS,0                 RESET OVERRIDE INDICATOR
         LR    WA,SOURCE                PREPARE TO FIND LOWEST SEQ NUMB
         LR    WB,WA                    WB IS NEXT TO BE EXAMINED
P2NLK    CR    WB,STOP                  END OF SUBSET?
         BE    P2ROC                    BR OUT IF SO
         AR    WB,RLL                   POINT TO NEXT ENTRY
*        EXTRA COLUMN IN FOLLOWING INSTR IS TO FORCE DELETES LOWER
         CLC   CURSEQ(9),CURSEQ-LEVEL(WB)  IS WA STILL LO
         BL    P2NLK                    BR IF YES
         BE    P2OVRID                  BR IF SAME SEQUENCE NUMBER
         LR    WA,WB                    POINT TO NEW 'LOW' ENTRY
         MVI   OVFLGS,0            NEW 'LOW' CARD - RESET OVERRIDE IND
         B     P2NLK                    GO TO CONTINUE CHECK
P2OVRID  DS    0H
         OI    OVFLGS,OVERRID           EQUAL - NOTE OVERRIDE OCCURRED
         L     WC,CARDPTR               WC --> CARD IMAGE
         L     WD,CARDPTR-LEVEL(,WB)    WD --> OVERRIDING CARD IMAGE
         CLC   0(63,WC),0(WD)           ARE THEY THE SAME CARD?
         BE    P2REPL                   YES - BRANCH
         OI    OVFLGS,DIFFRNT           NO - NOTE DIFFERENT CARDS
P2REPL   LR    WA,WB                    POINT TO NEW 'LOW' ENTRY
         B     P2NLK                    GO SEE IF IT'S LOWEST
         EJECT
P2ROC    DS    0H
         CLC   CURSEQ,MAXSEQ            ARE WE AT END OF DATA
         BNE   P2DOCARD
P2NMOD   SR    R1,R1                    SET TO FLUSH CURRENT MODULE
         BAL   R14,P2PUT                DO IT
         LA    START,0(STOP,RLL)        SET TO DO NEXT SUBSET
         B     P2CKEND                  BACK FOR NEXT SUBSET
P2DOCARD DS    0H
         L     WC,CARDPTR               WC --> CARD IMAGE
         TM    OVFLGS,DIFFRNT           A DIFFERENT OVERRIDE NOTED?
         BZ    P2TOV                    BR IF NOT
         MVI   P2OVL1+4,WARN            SET LOGGING LEVEL - DIFF CARDS
         B     P2OVLOG                  GO LOG OVERRIDDEN CARDS
P2TOV    TM    OVFLGS,OVERRID           ANY OVERRIDING TAKE PLACE?
         BZ    P2NOVER                  BR IF NOT
         MVI   P2OVL1+4,NOTE         SET LOGGING LVL - SAME CARD OVER'D
P2OVLOG  LR    R0,WC                    POINT TO CARD IMAGE FOR LOGGING
P2OVL1   LOG   *-*,0,3,'OVERRIDES FOLLOWING CARD(S)'
         SPACE 1
         LR    WB,SOURCE               BACK UP & PRINT OVERRIDDEN CARDS
P2LOGOV  CR    WA,WB                    ARE WE THRU?
         BE    P2NOVER                  BR IF SO
         CLC   CURSEQ(9),CURSEQ-LEVEL(WB) THIS CARD OVERRIDDEN?
         BNE   P2LOVN                   BR IF NOT
         MVI   P2OVL2+4,WARN            PRESET LEVEL ASSUMING UNEQUAL
         L     WD,CARDPTR-LEVEL(WB)     WD --> OVERRIDDEN CARD
         CLC   0(63,WC),0(WD)           SAME CARD IMAGE?
         BNE   P2OVLOG2                 BR IF NOT TO LOG
         MVI   P2OVL2+4,NOTE            RESET LOGGING LEVEL
P2OVLOG2 LR    R0,WD                    POINT R0 TO OVERRIDDEN CARD
P2OVL2   LOG   *-*,0,2,' '              LOG OVERRIDDEN CARD
         LR    R1,WB                    SET PARAMETER FOR READ ROUTINE
         BAL   R14,P2READ               SKIP OVERRIDEN CARD
P2LOVN   AR    WB,RLL                   ADVANCE TO NEXT SUBSET ENTRY
         B     P2LOGOV                  GO SEE IF WE'RE DONE
         EJECT
P2NOVER  DS    0H
         CLC   0(2,WC),=C'./'           DO WE HAVE A CONTROL CARD
         BNE   CDOUT                    BR IF NO TO WRITE IT OUT
         CLI   2(WC),C'*'               ./*  COMMENT CARD?
         BNE   P2COPY                   BR IF NOT
         LR    R0,WC                    POINT FOR LOGGING
         LOG   NOTE,,,' '               LOG THE COMMENT
         B     P2RWA                    THAT'S IT FOR THIS ONE
P2COPY   DS    0H
         MVC   CARD,0(WC)               MAKE TEMP COPY FOR FIDDLING
         LA    R1,CARD+2
         LA    R0,CARD+72
         BAL   R14,SCANVERB             SCAN FOR VERB
         SPACE 1
         CLC   SCANOUT,=CL8'LOG'        ./ LOG CARD?
         BE    P2DOLOG                  BR IF SO
         SPACE 1
         CLC   SCANOUT,=CL8'DELET'      ./ DELET CARD?
         BE    P2DELET                  BR IF SO
         SPACE
         CLC   SCANOUT,=CL8'DELETE'     ./   DELETE CARD?
         BE    P2DELET                  BR IF SO
         SPACE 1
         CLC   SCANOUT,=CL8'SKIP'       ./ SKIP CARD?
         BE    P2SKIP                   BR IF SO
         SPACE 1
         CLC   SCANOUT,=CL8'ABEND'      ./ ABEND REQUEST?
         BE    P2ABEND
         SPACE 1
         LR    R0,WC                    R0 --> CARD IMAGE FOR LOGGING
         LOG   ERR,20,0,'ILLEGAL CONTROL CARD  *** ERROR'
         B     P2RWA                    SKIP IT
         SPACE 1
P2ABEND  ABEND 30,DUMP                  USER REQUESTED ABEND
 TITLE '-----  MERGE UPDATES  -----  PASS2  --  PROCESS ./ LOG CARD'
         SPACE 1
P2DOLOG  MVC   CURLOG,ORIGLOG           ASSUME RESET TO ORIGINAL LEVEL
         BAL   R14,SCANFLD              SCAN FOR OPERAND
         CLI   SCANOUT,C' '             OMITTED?
         BE    P2LOGLOG                 BR IF SO
         CLI   SCANOUT+1,C' '           1 DIGIT?
         BNE   P2LOG2CH                 BR IF 2 CHAR OPERAND
         MVI   CURLOG,C'0'              SET INITIAL ZERO IN CURLOG
         MVC   CURLOG+1(1),SCANOUT      MOVE IN OPERAND DIGIT
         B     P2LOGLOG                 GO LOG THE LOGGING LEVEL
         SPACE 1
P2LOG2CH MVC   CURLOG,SCANOUT           MOVE IN THE USER'S OPERAND
P2LOGLOG MVC   P2LOGMS+33(2),CURLOG     SET UP THE MESSAGE
         LR    R0,WC                    POINT AT CARD FOR LOGGING
P2LOGMS  LOG   HIGH,0,0,'CURRENT LOGGING LEVEL IS   '
         B     P2RWA                    GO READ NEXT CARD
 TITLE '-----  MERGE UPDATES  -----  PASS2  --  PROCESS ./ DELET CARD'
         SPACE 2
P2DELET  DS    0H
         BAL   R14,SCANDEL              SCAN DELETE CARD
         MVC   SEQ1(16),DELSEQ1
         LR    R0,WC                    LOG THE CARD
         LOG   HIGH,0,5,'BEGINNING PROCESSING'
         CLI   SEQ1,C' '                OPERANDS OMITTED?
         BE    P2DSEQ                   BR IF SO
         CLI   SEQ2,C' '                TERMINATING SEQ NO PRESENT?
         BNE   *+10                     BR IF SO
         MVC   SEQ2,SEQ1                DUPLICATE STARTING SEQ NUMBER
         CLC   SEQ1,SEQ2                PROPER SEQUENCE?
         BH    P2DSEQ                   NOPE
         LR    WB,SOURCE                SET TO SCAN LEVELS SUBSET
P2DEL1   CLC   SEQ2,CURSEQ-LEVEL(WB)    SHOULD WB'S CARD BE DELETED?
         BNL   P2DEL2                   BR IF SO
         B     CTLOUT                TERMINATE PROCESSING FOR THIS CARD
         SPACE 1
P2DEL2   DS    0H
         L     WD,CARDPTR-LEVEL(WB)     WD --> DELETED CARD
         CLC   0(2,WD),=C'./'           CONTROL CARD?
         BNE   P2DEL3                   BR IF NOT
         CLI   2(WD),C'*'               COMMENT?
         BE    P2DEL3                   BR IF SO
         LR    R1,WD                    SET FOR SCANNING
         LA    R0,72(,WD)
         BAL   R14,SCANVERB             LOOK FOR VERB
         CLC   SCANOUT(8),=CL8'DELET'   DELETING A DELET?
         BE    P2DELDEL                 BR IF SO
         CLC   SCANOUT(8),=CL8'DELETE'
         BE    P2DELDEL
P2DEL3   LR    R0,WD                    LOG THE CARD
         LOG   WARN,0,4,'DELETED'
P2DEL4   LR    R1,WB               SET TO READ NEXT CARD FOR (WB) ENTRY
         BAL   R14,P2READ               GO DO THE READ
         B     P2DEL1                   GO CHECK NEXT CARD
         SPACE 1
P2DELDEL BAL   R14,SCANDEL              SCAN OPERANDS
         CLC   SEQ2(8),DELSEQ2          SEQUENCE OVERLAP?
         BNL   P2DEL3                   BR IF NO PROBLEM
P2DEL45  LOG   ERR,20,4,'DELET RANGE OVERLAP  *** ERROR'
         B     P2DEL4                   GO SKIP TO NEXT CARD
*
P2DSEQ   LOG   ERR,20,4,'BAD OPERANDS  *** ERROR'
         B     CTLOUT                   SKIP THE CARD
 TITLE '-----  MERGE UPDATES  -----  PASS2  --  PROCESS ./ SKIP CARD'
         SPACE 2
P2SKIP   DS    0H
         LR    R0,WC                    SET FOR LOGGING
P2SKP0   LOG   HIGH,0,7,'BEGINNING PROCESSING'
         LR    WB,SOURCE                SET TO SCAN SUBSET
         LR    WD,STOP                  PRESET RANGE END FOR MAX
         LA    R1,CARD+2
         LA    R0,CARD+72
         BAL   R14,SCANVERB             RESCAN VERB
         BAL   R14,SCANFLD              GET SEQUENCE
         MVC   SEQ1(8),SCANOUT          SAVE SEQUENCE
         BAL   R14,SCANFLD              PICK UPT THE OPERAND
         MVC   FSTART,SCANOUT           AND SAVE IT
         BAL   R14,SCANFLD              SCAN THE OPERAND
         MVC   FSTOP,SCANOUT            AND SAVE IT TOO
         CLC   CDSEQ(8),SEQ1            CK FOR SCREWY SEQUENCES
         BNH   P2SKSL                   BR IF OK
         LR    R0,WC                    POINT TO CARD AGAIN
         LOG   ERR,8,6,'INVALID ENDING SEQUENCE  *** ERROR'
P2SKSL   DS    0H
         CLC   FSTART,=CL8' '           STARTING LEVEL PRESENT?
         BE    P2SKP4                   BR IF ALL LEVELS
P2SKP1   CLC   FSTART,LEVNAME-LEVEL(WB) SET TO SCAN TO STARTING LEVEL
         BE    P2SKP2                   BR IF WE FOUND IT
         AR    WB,RLL                   NEXT LEVEL
         CR    WB,STOP                  ARE WE STILL IN RANGE?
         BNH   P2SKP1                   BR BACK IF STILL OK
         MVC   P2SKER+14(8),FSTART      INSERT LEVEL NAME IN MSG
P2SKPB   SR    R0,R0                    NO CARD IMAGE TO PRINT
P2SKER LOG ERR,12,6,'LEVEL XXXXXXXX INVALID FOR THIS MODULE  *** ERROR'
         B     P2RWA                    TERMINATE ./ SKIP PRICESSING
         SPACE 1
P2SKP2   CLC   FSTOP,=CL8'END'          DOES HE WANT ALL THE REST?
         BE    P2SKP4                   BR IF SO
         LR    WD,WB                    PRESET
         CLC   FSTOP,=CL8' '            ENDING LEVEL PRESENT
         BNE   P2SKP3                   BR IF SO
         MVC   FSTOP,FSTART             SET TO SAME & FIND THEM ALL
P2SKP3   CLC   FSTOP,LEVNAME-LEVEL(WD)  IS THIS ENDING LEVEL?
         BNE   P2SKNL                   BR IF NOT
P2SKLM   AR    WD,RLL                   CHECK FOR MORE
         CR    WD,STOP                  WENT PAST STOPPING LEVEL?
         BH    P2SKTF                   BR IF SO
         CLC   FSTOP,LEVNAME-LEVEL(WD)  ALSO MATCHES?
         BE    P2SKLM                   BR IF SO - CHECK AGAIN
P2SKTF   SR    WD,RLL                   BACK OFF - WENT 1 TOO FAR
         B     P2SKP4                   NOW GO SKIP
P2SKNL   AR    WD,RLL                   NEXT LEVEL
         CR    WD,STOP                  ARE WE STILL WITHIN SUBSET?
         BNH   P2SKP3                   BR BACK IF STILL OK
         MVC   P2SKER+14(8),FSTOP       MOVE IN THE FAULTY LEVEL NAME
         B     P2SKPB                   BACK TO LOG THE ERROR
         SPACE 1
P2SKP4   CR    WA,WB                    SKIP NEVER AFFECTS OWN LEVEL
         BE    P2SKP6