         TITLE 'TSO DATA SET SPACE RELEASE COMMAND'
***********************************************************************
*                                                                     *
*                                                                     *
* TITLE -      TSO DATA SET SPACE RELEASE COMMAND                     *
*                                                                     *
* FUNCTION -   PROVIDE THE ABILITY FOR A TSO USER TO                  *
*              RELEASE UNUSED SPACE IN A DATA SET, OR                 *
*              A SERIES OF DATA SETS.                                 *
*                                                                     *
*                                                                     *
* OPERATION -  ACCEPT FROM THE TSO USER A COMMAND                     *
*              STRING CONTAINING THE NAME(S) OF THE                   *
*              DATA SETS TO BE PROCESSED. OPEN EACH                   *
*              DATA SET WITH DISPOSITION=MOD, THEN                    *
*              CLOSE THE DATA SET.                                    *
*                                                                     *
*                                                                     *
* INPUT -      STANDARD COMMAND PROCESSOR PARAMETER LIST              *
*              POINTED TO BY REGISTER 1                               *
*                                                                     *
*                                                                     *
* OUTPUT -     UNUSED SPACE RELEASED IN THE REQUESTED                 *
*              DATA SETS.                                             *
*                                                                     *
*                                                                     *
* ATTRIBUTES - REENTRANT, REUSEABLE, REFRESHABLE.                     *
*                                                                     *
*     FIXES:                                                          *
*      A) DAIR ERROR FIXED BY CLEARING VOLSER FIELD.  SRH - 7/84      *
*                                                                     *
*                                                                     *
***********************************************************************
         EJECT
         MACRO
&NAME    CLEAR &FIELD
         LCLC  &L
&L       SETC  'L'''
&NAME    MVI   &FIELD,C' '
         MVC   &FIELD+1(&L&FIELD-1),&FIELD
         MEND
         EJECT
         MACRO
&NAME    ENTER &TYPE
         AIF   ('&TYPE' NE '').A1
&NAME    CSECT
         SAVE  (14,12),,*
         LR    BASEREG1,15
         LA    BASEREG2,4095(BASEREG1)
         LA    BASEREG2,1(BASEREG2)
         USING &NAME,BASEREG1,BASEREG2
         B     IHB&SYSNDX
         DC    C'COPYRIGHT 1972 BY FIREMAN''S FUND INSURANCE'
         DC    C'COPYRIGHT 1973 BY SECURITY PACIFIC NATIONAL BANK'
         DC    C'COPYRIGHT 1982 BY HOWARD M. DEAN'          *HMD 10/82*
IHB&SYSNDX DS  0H
         SPACE 2
         MEXIT
.A1      AIF   ('&TYPE' NE 'VALCHECK').A2
&NAME    SAVE  (14,12)
         L     WORKREG,4(1)   WORK AREA ADDRESS
         LM    BASEREG1,BASEREG2,BASES RESTORE BASE REGISTERS
         L     R9,0(1)       PDE ADDRESS
         LA    R15,VALSAVE
         ST    R13,4(R15)
         ST    R15,8(R13)
         LR    R13,R15
         SPACE 3
         MEXIT
.A2      ANOP
         MNOTE 8,'INVALID TYPE ''&TYPE'''
         MEND
         EJECT
         MACRO
&NAME    EXIT  &LV=
&NAME    DS    0H
         AIF   ('&LV' EQ '').A1
         LR    R2,R13         ADDR OF THIS SAVE AREA
.A1      L     R13,4(R13)
         STM   R15,R1,16(R13) RETURN REGS 15, 0, 1
         AIF   ('&LV' EQ '').A2 NOT DYNAMIC CORE
         FREEMAIN R,LV=&LV,A=(R2)
.A2      SPACE
         RETURN (14,12),T
         MEND
         EJECT
         MACRO
&NAME    MSG   &TEXT
         LCLA  &A
&A       SETA  K'&TEXT-2+4
&NAME    DC    H'&A',H'0',C&TEXT
         MEND
         EJECT
R0       EQU   0
R1       EQU   1
R2       EQU   2
R3       EQU   3
R4       EQU   4
R5       EQU   5
R6       EQU   6
R7       EQU   7
R8       EQU   8
R9       EQU   9
WORKREG  EQU   10
BASEREG1 EQU   11
BASEREG2 EQU   12
R13      EQU   13
R14      EQU   14
R15      EQU   15
         EJECT
RELEASE  ENTER
         LR    R2,R1          SAVE ADDR OF CPPL
         SPACE
         L     R3,CORESIZE
         GETMAIN R,LV=(R3)
         SPACE 2
         LR    WORKREG,R1     ADDR OF WORK AREA
         USING WORKAREA,WORKREG
         EJECT
*
*        CLEAR WORK AREA
*
         SPACE 2
         LR    R14,R1        ADDRESS OF AREA                *HMD 08/79*
         LA    R15,0(R3)     LENGTH OF AREA TO CLEAR        *HMD 08/79*
         SR    R0,R0
         SR    R1,R1
         MVCL  R14,R0        PAD WITH ZEROS                 *HMD 08/79*
         SPACE 2
         STM   BASEREG1,BASEREG2,BASES SAVE BASE ADDRESSES
         SPACE 2
         LA    R15,MAINSAVE
         ST    R15,8(R13)
         ST    R13,4(R15)
         LR    R13,R15
         EJECT
*
*        LOAD TSO SERVICE ROUTINES
*
         SPACE 3
         USING CPPL,R2        BASE FOR COMMAND PARM LIST
         MVC   ADDRUPT,CPPLUPT ADDR OF USER PROFILE TABLE
         MVC   ADDRPSCB,CPPLPSCB
         MVC   ADDRECT,CPPLECT ADDR OF ENVIROMENT TABLE
         MVC   ADDRCBUF,CPPLCBUF
         DROP  R2
         SPACE 3
         LOAD  EPLOC=IKJDAIR  DYNAMIC ALLOCATION INTERFACE
         ST    R0,ADDRDAIR
         SPACE 3
         LOAD  EPLOC=IKJPUTL  PUTLINE SERVICE ROUTINE
         ST    R0,ADDRPUTL
         SPACE 2
         EJECT
*
*        BUILD PARSE PARAMETER LIST AND INVOKE
*        IKJPARS TO ANALYZE COMMAND OPERANDS
*
         SPACE 3
GOPARSE  DS    0H
         LA    R1,PARSELST    AREA FOR PARSE PARAMETERS
         USING PPL,R1         BASE FOR PARSE PARAMETER LIST
         SPACE 2
         MVC   PPLUPT,ADDRUPT PASS UPT ADDRESS
         MVC   PPLECT,ADDRECT AND ECT ADDRESS
         MVC   PPLCBUF,ADDRCBUF AND COMMAND BUFFER ADDR
         SPACE
         ST    WORKREG,PPLUWA ALSO WORK AREA ADDR FOR VALIDITY EXITS
         SPACE
         LA    R0,ATTNECB     ECB FOR ATTN INTERRUPTS
         MVI   ATTNECB,0      CLEAR ECB
         ST    R0,PPLECB      PASSE TO PARSE
         SPACE
         LA    R0,ADDRANSR    PASS ADDR OF WORD WHERE PARSE
         ST    R0,PPLANS      RETURNS PDL ADDRESS
         SPACE
         MVC   PPLPCL,ADDRPCL STORE PCL ADDRESS
         SPACE 3
         LINK  EPLOC=IKJPARS  INVOKE PARSE
         DROP  R1
         SPACE 2
         LA    R14,MAXPARSE   RETURN CODE LIMIT
         SPACE
         CR    R15,R14        VERIFY RETURN CODE WITHIN LIMITS
         BH    PARSEBAD       NO, ERROR
         SPACE
         L     R14,ADDREXIT   PARSE EXIT PROCESSOR
         B     *+4(R15)       PROCESS RETURN CODE
         SPACE
PARSERET B     PARSEOK         0- SUCESSFUL
         B     ERROROUT        4- PARSE UNABLE TO PROMPT
         B     ERROROUT        8- USER ENTERED ATTENTION
         B     PARSEBAD       12- INVALID PARAMETERS
         B     PARSEBAD       16- PARSE INTERNAL FAILURE
         B     ERROROUT       20 - VALIDITY CHECK ERROR
MAXPARSE EQU   *-PARSERET
         SPACE 5
PARSEBAD DS    0H
         MVC   MSGTEXT2+4(L'MSGPARSE),MSGPARSE
         LA    R1,MSGTEXT2+4+L'MSGPARSE
         SPACE
         CVD   R15,DOUBLE
         OI    DOUBLE+7,X'0F'
         UNPK  0(2,R1),DOUBLE
         SPACE
         LA    R0,MSGTEXT2-2
         SR    R1,R0
         SLL   R1,16
         ST    R1,MSGTEXT2
         SPACE 2
         LA    R0,MSGTEXT2    PUT OUT 'COMMAND ERROR' MSG
         LA    R1,MSGCMDER
         SPACE
         BAL   R14,ERRORMSG
         SPACE 3
EXIT12   DS    0H
ERROROUT LA    R15,12         ERROR CODE 12 - COMMAND FAILED
         B     RETURN
         SPACE
EXIT0    SR    R15,R15
         SPACE 3
RETURN   LTR   R2,R15         NORMAL EXIT?
         BZ    RETURN1        YES
         SPACE 2
         LA    R1,PARMLIST    AREA FOR STACK PARM LIST
         USING IOPL,R1
         SPACE
         MVC   IOPLUPT,ADDRUPT
         MVC   IOPLECT,ADDRECT
         LA    R0,ATTNECB
         MVI   ATTNECB,0
         ST    R0,IOPLECB
         EJECT
         STACK PARM=PARMLIST+16,DELETE=ALL,MF=(E,(1))
         SPACE 2
         TCLEARQ INPUT        CLEAR INPUT BUFFERS
         EJECT
RETURN1  DS    0H
         BAL   R14,FREEPDL    FREE THE PARSE STROAGE
         SPACE 2
         DELETE EPLOC=IKJDAIR
         SPACE 2
         DELETE EPLOC=IKJPUTL
         SPACE 2
         LR    R15,R2         RESTORE RETURN CODE
         L     R0,CORESIZE
         SPACE
         EXIT  LV=(0)
         EJECT
PARSEOK  DS    0H
         L     R9,ADDRANSR    ADDR OF PARSE DESCRIPTOR LIST
         USING PDL,R9         RETURNED BY PARSE
         SPACE
         LA    R2,OPTDSN      ADDR OF DSNAME PDL
         SPACE 3
NEXTPDL  DS    0H
         ST    R2,CURRPDL               SAVE CURRENT PDLA   *HMD 01/80*
         NI    FLAGS,X'FF'-FMATCH-FCVOL CLEAR DATA SET FOUND FLAGS
         SPACE 2
         CLEAR DSNAME
         SPACE
         L     R15,0(R2)      MOVE DSNAME TO AREA
         LH    R14,4(R2)
         STH   R14,DSNLEN
         BCTR  R14,0
         MVC   DSNAME(0),0(R15)
         EX    R14,*-6
         SPACE
         NI    FLAGS,X'FF'-FQUOTED
         TM    6(R2),X'40'    DATA SET NAME QUOTED?
         BZ    NOTQUOTE       NO
         OI    FLAGS,FQUOTED
NOTQUOTE DS    0H
         SPACE
         CLEAR PASSWORD
         TM    22(R2),X'80'   PASSWORD SUPPLIED?
         BZ    NOPASS         NO
         SPACE
         L     R15,16(R2)
         LH    R14,20(R2)
         BCTR  R14,0
         MVC   PASSWORD(0),0(R15)
         EX    R14,*-6
NOPASS   DS    0H
         SPACE 2
         BAL   R14,INDXSCAN   DETERMINE IF PATTERN INDEX SPECIFIED
         B     SYNTXXX        00-SYNTAX ERROR
         B     NOPATTRN       04-NOT PATTERN FORMAT
*                             08-DSN IS PATTERN
         EJECT
*
         SPACE 2
         GETMAIN R,LV=4096+12       GET STORAGE FOR LOCINDEX*HMD 12/79*
         LR    R3,R1          SET UP LOCINDEX PARMS         *HMD 12/79*
         USING LOCPARM,R3     ESTABLISH ADDRESSIBILITY      *HMD 12/79*
         ST    R3,PATAREA     SAVE ADDRESS FOR FREEMAIN     *HMD 12/79*
FLOOP    L     R3,PATAREA     'LOCINDEX' WORK AREA ADDR     *HMD 12/79*
         CLEAR DSNAME                                       *HMD 12/79*
         LA    R1,PATTERN     GET PATTERN ADDRESS           *HMD 12/79*
         ST    R1,PATTDSN     SAVE IN PARMLIST              *HMD 12/79*
         LA    R1,DSNAME      FOR FULL DSNAME               *HMD 12/79*
         ST    R1,FULLDSN     SAVE IN PARMLIST              *HMD 12/79*
         LA    R1,VOLUMXX     AREA FOR VOLUME               *HMD 12/79*
         ST    R1,VOLSER      SAVE IN PARMLIST              *HMD 12/79*
         LA    R1,WORKA+4     GETMAINED WORK AREA           *HMD 12/79*
         ST    R1,WORKA       SAVE IN PARMLIST              *HMD 12/79*
         OI    WORKA,X'80'    INDICATE END OF PARMLIST      *HMD 12/79*
         DROP  R3             WE DON'T NEED BASE NOW        *HMD 01/80*
         SPACE 2
FCHAIN   DS    0H             PROCESS REQUEST BY LEVELS     *HMD 12/79*
         BAL   R14,CALLLOC    CALL 'LOCINDEX' SUBROUTINE    *HMD 12/79*
         B     *+4(15)        BRANCH BASED ON RC            *HMD 12/79*
         B     FOUNDDS        WE FOUND A DSNAME             *HMD 12/79*
         B     ENDCHAIN       WE DIDN'T FIND A DSNAME       *HMD 12/79*
         B     NOTDISK        DATASET IS NOT ON DISK        *HMD 12/79*
         B     MULTIVOL       MULITVOLUME DATA SET          *HMD 12/79*
         B     ENDCHAIN       END OF DSLIST                 *HMD 12/79*
         B     IOERROR        I/O ERROR IN CATALOG          *HMD 12/79*
         B     SVC26R         UNKNOWN SVC 26 ERROR          *HMD 04/82*
BADCODE  DS    0H             IF GT 24, THEN ABEND          *HMD 12/79*
         ABEND 2048,DUMP                                    *HMD 12/79*
*
*        LOCINDEX CATALOG 'SUPERLOCATE' SUBROUTINE'
*
         SPACE 2
CALLLOC  DS    0H
         ST    R14,R14SAVE
         SPACE 1
         L     R1,PATAREA
         L     R15,LOCV       GET LOCINDEX ADDRESS
         BALR  R14,R15        GET NEXT DSNAME
         LA    R1,DSNAME      GET DSNAME ADDR               *HMD 12/79*
         LA    R3,DSNAME      DSNAME ADDRESS                *HMD 12/79*
         TRT   DSNAME(44),TRTAB    GET LENGTH OF DSNAME     *HMD 12/79*
         BZ    FORTY4         FORTY-FOUR CHARACTERS         *HMD 12/79*
         SR    R1,R3          GET LENGTH IN R1              *HMD 12/79*
         B     STORLEN        SAVE LENGTH                   *HMD 12/79*
FORTY4   LA    R1,44          ASSUME 44 CHARACTER DSNAME    *HMD 12/79*
STORLEN  STH   R1,DSNLEN      SAVE DSNLENGTH IN AREA        *HMD 12/79*
         L     R14,R14SAVE
         BR    R14            EXIT
         DROP  R1                                           *HMD 12/79*
         EJECT
FOUNDDS  DS    0H             EUREKA, WE FOUND IT           *HMD 12/79*
         OI    FLAGS,FMATCH   INDICATE A DS WAS FOUND       *HMD 12/79*
         BAL   R14,RLSEDS     RELEASE SPACE IN THIS DS      *HMD 12/79*
         B     FLOOP          TRY ANOTHER ONE               *HMD 12/79*
         EJECT                                              *HMD 01/80*
NOTDISK  DS    0H             COME HERE IF DS IS NOT ON DISK*HMD 12/79*
         OI    FLAGS,FMATCH   THIS IS A MATCH               *HMD 01/80*
         MVC   MSGTEXT1,MSGNRLSE   MOVE IN 'NO RELEASE'     *HMD 01/80*
         LH    R15,MSGTEXT1   GET LENGTH OF MSG             *HMD 01/80*
         LH    R14,DSNLEN     + LENGTH OF DATA SET          *HMD 01/80*
         LA    R15,MSGTEXT1(R15)  BUMP PAST MESSAGE         *HMD 01/80*
         BCTR  R14,0          DECREMENT FOR MVC             *HMD 01/80*
         MVC   0(0,R15),DSNAME MOVE IN DSNAME               *HMD 01/80*
         EX    R14,*-6                                      *HMD 01/80*
         AH    R14,MSGTEXT1   ADD LENGTH OF MESSAGE         *HMD 01/80*
         LA    R14,1(R14)     BUMP FOR MVC + SPACE          *HMD 01/80*
         STH   R14,MSGTEXT1   SAVE NEW LENGTH               *HMD 01/80*
         LA    R1,MSGTEXT1    FIRST LEVEL MESSAGE           *HMD 01/80*
         LA    R0,MSGNDISK    SECOND LEVEL MESSAGE          *HMD 01/80*
         BAL   R14,ERRORMSG   PUT OUT MESSAGE               *HMD 01/80*
         B     FLOOP          CONTINUE WITH NEXT D.S        *HMD 01/80*
         EJECT                                              *HMD 12/79*
MULTIVOL DS    0H             RESIDES ON MULT VOLUMES       *HMD 01/80*
         OI    FLAGS,FMATCH   THIS IS A MATCH               *HMD 01/80*
         MVC   MSGTEXT1,MSGNRLSE   MOVE IN 'NO RELEASE'     *HMD 01/80*
         LH    R15,MSGTEXT1   GET LENGTH OF MSG             *HMD 01/80*
         LH    R14,DSNLEN     + LENGTH OF DATA SET          *HMD 01/80*
         LA    R15,MSGTEXT1(R15)  BUMP PAST MESSAGE         *HMD 01/80*
         BCTR  R14,0          DECREMENT FOR MVC             *HMD 01/80*
         MVC   0(0,R15),DSNAME MOVE IN DSNAME               *HMD 01/80*
         EX    R14,*-6                                      *HMD 01/80*
         AH    R14,MSGTEXT1   ADD LENGTH OF MESSAGE         *HMD 01/80*
         LA    R14,1(R14)     BUMP FOR MVC + SPACE          *HMD 01/80*
         STH   R14,MSGTEXT1   SAVE NEW LENGTH               *HMD 01/80*
         LA    R1,MSGTEXT1    FIRST LEVEL MESSAGE           *HMD 01/80*
         LA    R0,MSGMULTI    SECOND LEVEL MESSAGE          *HMD 01/80*
         BAL   R14,ERRORMSG   PUT OUT MESSAGE               *HMD 01/80*
         B     FLOOP          CONTINUE WITH NEXT D.S        *HMD 01/80*
         EJECT                                              *HMD 01/80*
IOERROR  DS    0H             BAD ERROR IN LOCINDEX         *HMD 01/80*
         CLEAR MSGTEXT1       CLEAR MESSAGE AREA            *HMD 01/80*
         LH    R15,MSGIOERR   LOAD LENGTH OF MESSAGE        *HMD 01/80*
         BCTR  R15,0          DOWN 1 FOR MVC                *HMD 01/80*
         MVC   MSGTEXT1(0),MSGIOERR  MOVE IN TEXT           *HMD 01/80*
         EX    R15,*-6        MOVE MESSAGE TO AREA          *HMD 01/80*
         LA    R1,MSGTEXT1        MOVE IN                   *HMD 01/80*
         BAL   R14,ERRORMSG   MOVE IN ERROR MESSAGE         *HMD 01/80*
         LA    R15,20         I/O ERROR END PROCESSING      *HMD 01/80*
         B     EXIT0          EXIT IMMEDIATELY FROM 'RLSE'  *HMD 01/80*
         EJECT                                              *HMD 04/82*
SVC26R   DS    0H             UNKNOWN SVC 26 ERROR          *HMD 04/82*
         LA    R1,MSGLOCER    LOAD 1ST LEVEL MESSAGE        *HMD 04/82*
         LA    R0,MSGLOC02    LOAD 2ND LEVEL MESSAGE        *HMD 04/82*
         BAL   R14,ERRORMSG   PUT OUT ERROR MESSAGE         *HMD 04/82*
         LA    R15,24         INDICATE BAD ERROR            *HMD 04/82*
         B     EXIT0          RETURN TO SYSTEM              *HMD 04/82*
         EJECT                                              *HMD 01/80*
SYNTXXX  DS    0H             SYNTAX ERROR IN DSNAME        *HMD 01/80*
         NI    FLAGS,255-FPATTERN                           *HMD 01/80*
* TURN OFF PATTERN FLAGS SO FREEMAIN WILL NOT BE DONE       *HMD 01/80*
         MVC   MSGTEXT1,MSGSYNTX                            *HMD 01/80*
         LH    R1,MSGTEXT1                                  *HMD 01/80*
         LH    R14,DSNLEN     LENGTH OF DSN                 *HMD 01/80*
         LA    R0,0(R14,R1)                                 *HMD 01/80*
         STH   R0,MSGTEXT1                                  *HMD 01/80*
         SPACE 1                                            *HMD 01/80*
         LA    R1,MSGTEXT1(R1)                              *HMD 01/80*
         LA    R15,DSNAME                                   *HMD 01/80*
         SPACE 1                                            *HMD 01/80*
         BCTR  R14,0                                        *HMD 01/80*
         MVC   0(0,R1),0(R15)                               *HMD 01/80*
         EX    R14,*-6                                      *HMD 01/80*
         SPACE 1                                            *HMD 01/80*
         LA    R1,MSGTEXT1                                  *HMD 01/80*
         SR    R0,R0                                        *HMD 01/80*
         SPACE 1                                            *HMD 01/80*
         BAL   R14,ERRORMSG                                 *HMD 01/80*
         B     NEXTDSN                                      *HMD 01/80*
         EJECT                                              *HMD 01/80*
*
*        PATTERN INDEX/DSNAME SCAN SUBROUTINE
*
         SPACE 2
INDXSCAN DS    0H
         STM   14,12,12(13)
         SR    R3,R3
         BAL   R14,GETUID     FORMAT PATTERN AND DSNAME
SCANX    DS    0H
         SPACE 2
         LA    R0,MAXINDEX
         LA    R1,DSNAME
         LH    R15,DSNLEN
         AR    R15,R1
         BCTR  R15,0
         LA    R14,1
         NI    FLAGS,X'FF'-FPATTERN
         SPACE
SCAN1    DS    0H
         CLI   0(R1),C'*'     SPECIAL INDEX?
         BE    SCAN1A         YES
         CLI   0(R1),C'.'     INDEX SEPERATOR?
         BE    SCAN4          YES
         BXLE  R1,R14,SCAN1   GET NEXT CHARACTER
         B     SCAN5A         END OF CHARACTERS             *HMD 01/80*
         SPACE
SCAN1A   TM    FLAGS,FPATTERN DID WE ALREADY GET PATTERN    *HMD 01/80*
         BNO   SCAN2          NO, CONTINUE                  *HMD 01/80*
         B     SCAN0A         BAD SYNTAX                    *HMD 01/80*
         SPACE
SCAN4    DS    0H
         LA    R3,1(R3)
         CR    R3,R0
         BH    SCAN0A
SCAN5    DS    0H
         LA    R14,1
         BXLE  R1,R14,SCAN1
         SPACE
SCAN5A   TM    FLAGS,FPATTERN                               *HMD 01/80*
         LA    R15,4
         BZ    SCANEXIT
         LA    R15,8
         SPACE
SCANEXIT DS    0H
         L     14,12(13)
         LM    0,12,20(13)
         B     0(R14,R15)
         SPACE 3
SCAN0A   DS    0H             SYNTAX ERROR - TOO MANY LEVELS
         SR    R15,R15
         B     SCANEXIT
         SPACE 2
SCAN2    DS    0H
         TM    FLAGS,FQUOTED  SPECIAL DSN?
         BZ    SCAN2A         NO
         LTR   R3,R3          YES, * IN FIRST LEVEL?
         BZ    SCAN0A         YES, ERROR
SCAN2A   DS    0H
         OI    FLAGS,FPATTERN
         SR    R14,R14
         LA    R1,1(R1)
         B     SCAN4
         EJECT
GETUID   DS    0H
         SPACE 2
         TM    FLAGS,FQUOTED    NEED USERID APPENDED?       *HMD 01/80*
         BO    QUOTID           NOPE, JUST MOVE TO PATTERN  *HMD 01/80*
         L     R15,ADDRUPT      GET UPT ADDRESS             *HMD 08/79*
         USING UPT,R15          ADDRESS TABLE               *HMD 08/79*
         SR    R1,R1                                        *HMD 08/79*
         IC    R1,UPTPREFL      GET PREFIX LENGTH           *HMD 08/79*
         STH   R1,PATTLEN       SAVE LENGTH                 *HMD 01/80*
         BCTR  R1,0             GET MACHINE LENGTH          *HMD 08/79*
         CLEAR PATTERN          CLEAR PATTERN AREA          *HMD 01/80*
         MVC   PATTERN(0),UPTPREFX      MOVE IN PREFIX      *HMD 08/79*
         EX    R1,*-6                                       *HMD 08/79*
         LA    R1,PATTERN(R1)   BUMP PAST LEVEL             *HMD 01/80*
         MVI   1(R1),C'.'       MOVE IN DOT                 *HMD 01/80*
         LH    R15,DSNLEN       GET DSN LENGTH              *HMD 01/80*
         BCTR  R15,0            DECREMENT FOR MVC           *HMD 01/80*
         MVC   2(0,R1),DSNAME   MOVE IN REST OF NAME        *HMD 01/80*
         EX    R15,*-6                                      *HMD 01/80*
         AH    R15,PATTLEN      ADD PATTERN LENGTH          *HMD 01/80*
         LA    R15,2(R15)       ADJUST FOR MVCS             *HMD 01/80*
         STH   R15,DSNLEN       SAVE DSNAME LENGTH          *HMD 01/80*
         STH   R15,PATTLEN      SAVE PATTERN LENGTH         *HMD 01/80*
         BCTR  R15,0          MOVE DSNAME BACK JUST IN CASE *HMD 01/80*
         MVC   DSNAME(0),PATTERN                            *HMD 01/80*
         EX    R15,*-6                                      *HMD 01/80*
         OI    FLAGS,FQUOTED    INDICATE QUOTED NOW         *HMD 01/80*
         DROP  R15
         BR    R14
         SPACE
QUOTID   DS    0H                                           *HMD 01/80*
         CLEAR PATTERN        CLEAR PATTERN AREA            *HMD 01/80*
         LH    R1,DSNLEN      GET DSNAME LENGTH             *HMD 01/80*
         BCTR  R1,0           DECREMENT FOR MVC             *HMD 01/80*
         MVC   PATTERN(0),DSNAME   MOVE DSNAME              *HMD 01/80*
         EX    R1,*-6                                       *HMD 01/80*
         LA    R1,1(R1)       FULL LENGTH OF NAME           *HMD 01/80*
         STH   R1,PATTLEN     SAVE PATTERN LENGTH           *HMD 01/80*
         BR    R14            RETURN TO CALLER              *HMD 01/80*
         EJECT
*
*        END OF PATTERN DSNAME PROCESSING
*
         SPACE 2
ENDCHAIN DS    0H
         TM    FLAGS,FMATCH   WAS ANY DATA SET FOUND
         BO    NEXTDSN        YES, CONTINUE
         SPACE 2
         MVC   MSGTEXT1,MSGNOPAT
         LH    R14,MSGTEXT1
         LH    R15,PATTLEN    GET PATTERN LENGTH
         LA    R0,0(R14,R15)
         STH   R0,MSGTEXT1
         LA    R14,MSGTEXT1(R14)
         BCTR  R15,0
         MVC   0(0,R14),PATTERN
         EX    R15,*-6
         SPACE 2
         LA    R1,MSGTEXT1
         SR    R0,R0
         BAL   R14,ERRORMSG
         B     NEXTDSN
         EJECT
*
*        SINGLE DATA SET NAME PROCESSING
*
         SPACE 2
NOPATTRN DS    0H
         BAL   R14,RLSEDS     RELEASE SPACE IN THIS DATA SET
         SPACE 3
*
*        GET NEXT DATA SET/INDEX LEVEL
*
         SPACE 2
NEXTDSN  DS    0H
         TM    FLAGS,FPATTERN ARE WE PROCESSING A PATTERN?  *HMD 01/80*
         BZ    GETPDL         NO, FORGET FREEMAIN           *HMD 01/80*
         L     R1,PATAREA     GET PATTERN WORK AREA ADDR    *HMD 01/80*
         L     R0,=A(4096+12) LENGTH OF WORK AREA           *HMD 01/80*
         FREEMAIN R,LV=(0),A=(1)  FREE UP STORAGE           *HMD 01/80*
GETPDL   L     R2,CURRPDL     GET CURRENT PDL ADDRESS       *HMD 01/80*
         L     R2,24(R2)      GET LIST CHAIN ADDRESS
         LA    R2,0(R2)       CLEAR TOP BYTE
         LTR   R2,R2          ANOTHER ENTRY IN THE LIST?
         BNZ   NEXTPDL        YES, CONTINUE
         SPACE
         B     EXIT0          SUCESSFUL COMPLETION EXIT
         SPACE
         LTORG                                              *HMD 01/80*
         EJECT                                              *HMD 01/80*
*
*        SPACE RELEASE SUBROUTINE
*
         SPACE 3
RLSEDS   DS    0H
         ST    R14,R14RLSE
         SPACE 2
ALLOWIT  DS    0H
         LA    R1,DAIRBLK     ADDRESS OF DAIR PARAMETER BLOCK
         USING DAPB08,R1
         XC    DAIRBLK(LDAIRBLK),DAIRBLK
         SPACE 2
         LA    R0,X'08'
         STH   R0,DA08CD
         SPACE 2
         LA    R0,DSNLEN
         ST    R0,DA08PDSN    DSNAME ADDR FOR DAIR
         SPACE 2
         CLEAR DA08UNIT
         MVC   DA08UNIT,SYSALLDA  MOVE IN SYSDA VOLUMES     *HMD 10/82*
         SPACE
         CLEAR DA08SER            CLEAR VOLSER FIELD        *SRH 07/84*
         TM    FLAGS,FPATTERN     PATTERN NAME GIVEN?       *HMD 01/80*
         BZ    MVCVOL             MOVE VOLUME PARM GIVEN    *HMD 01/80*
         MVC   DA08SER(6),VOLUMXX    MOVE IN LOCINDEX VOL   *SRH 07/84*
         B     AROUNDX            BRANCH AROUND VOLUME MVE  *HMD 01/80*
MVCVOL   DS    0H                                           *HMD 01/80*
         MVC   DA08SER(6),VOLUME SET VOLUME NAME            *SRH 07/84*
         SPACE 3
AROUNDX  DS    0H                                           *HMD 01/80*
         CLEAR DA08MNM
         SPACE 2
         MVC   DA08PSWD,PASSWORD
         SPACE 2
         OI    DA08DSP1,DA08OLD    ASSUME DISP=(OLD,KEEP,KEEP)
         OI    DA08DPS2,DA08KEEP
         OI    DA08DPS3,DA08KEP
         SPACE 2
         OI    DA08CTL,DA08UID
         TM    FLAGS,FQUOTED  DSNAME QUALIFIED?
         BZ    NOTQUAL        NO
         XI    DA08CTL,DA08UID     YES, NO USERID REQUIRED
         SPACE 2
NOTQUAL  DS    0H
         CLEAR DA08DDN
         SPACE 2
         BAL   R14,CALLDAIR   ALLOCATE THE DATA SET
         LTR   R15,R15        CHECK RETURN CODE
         BNZ   NOTALLOC       DATA SET DID NOT ALLOCATE
         SPACE 2
         OI    FLAGS,FMATCH   INDICATE DATA SET MATCH
         LA    R1,DAIRBLK
         TM    DA08DSO,X'42'  DSORG=PS OR PO?
         BZ    NORLSE         NO, BYPASS RELEASE
         SPACE 2
         MVC   DDNAME,DA08DDN
         SPACE 2
         MVC   REALDCB(LDCB),DUMMYDCB
         LA    R1,EXLST
         IC    R0,DCBEXLST-IHADCB+REALDCB
         ST    R1,DCBEXLST-IHADCB+REALDCB
         STC   R0,DCBEXLST-IHADCB+REALDCB
         MVC   DCBDDNAM-IHADCB+REALDCB,DDNAME
         MVC   RLSEDCB(LDCB),REALDCB
         LA    R0,JFCB
         ST    R0,EXLST
         MVI   EXLST,X'87'
         MVI   OPENLIST,X'80'
         RDJFCB RLSEDCB,MF=(E,OPENLIST)
         OI    JFCBTSDM,X'08' PREVENT JFCB RE-WRITE
         NI    JFCBIND2,X'3F'
         OI    JFCBIND2,X'80' SET 'DISP=MOD' FLAG
         OPEN  (REALDCB,OUTPUT),TYPE=J,MF=(E,OPENLIST)
         STM   14,12,12(R13)  SAVE REGISTERS
         EJECT
*
*        CALCULATE TOTAL AMOUNT OF SPACE IN DATA SET
*
         SPACE 2
         L     R1,REALDCB+(DCBDEBAD-IHADCB) GET DEB ADDR
         SR    R14,R14
         SR    R15,R15
         IC    R14,DEBNMEXT(R1) GET EXTENT COUNT
         IC    R15,DEBAMLNG(R1) GET EXTENT SIZE
         SPACE 2
         SR    R0,R0
         SPACE
EXTNTCNT DS    0H
         AH    R0,DEBDVMOD+14(R1) ADD NUMBER OF TRACKS IN EXTENT
         AR    R1,R15         JUMP EXTENT POINTER
         BCT   R14,EXTNTCNT   LOOP THROUGH EXTENTS
         SPACE 2
*        R0 = TOTAL NUMBER OF TRACKS IN DATA SET
         SPACE 2
         BCTR  R0,0           DECREMENT FOR CALCULATIONS
         STH   R0,SIZEDS      SAVE TOTAL DATA SET SIZE
         SPACE 2
         LR    R3,R13
         L     R1,DCBDEBAD-IHADCB+REALDCB DEB ADDRESS
         LA    R2,DCBFDAD-IHADCB+REALDCB CCHHR OF LAST RECORD
         MVC   SAVEFDAD,REALDCB+(DCBFDAD-IHADCB)  SAVE LAST RECORD ADDR
         L     R15,CVT        ADDR OF CVT
         L     R15,CVTPRLTV(R15) CCHHR TO TTR CONVERT
         BALR  R14,R15
         LR    R13,R3
         LM    1,12,24(13)    RELOAD REGISTERS
         SPACE 2
         SRL   R0,16          GET RELATIVE # OF LAST TRACK
         SPACE
         LH    R1,SIZEDS      TOTAL AMOUNT IN DATA SET
         SR    R1,R0          TOTAL FREE SPACE
         BNP   FULLDS         IF NONE IS FREE
         SPACE
         STH   R1,SIZEFREE
         SPACE
         TM    FLAGS,FPARTIAL PARTIAL SPACE REQUEST?
         BZ    FREEALL        NO, RELEASE ALL SPACE
         EJECT
*
*        COMPUTE ADDRESS OF LAST TRACK IN DATA SET
*
         SPACE 1
         SH    R1,SIZESAVE    AMOUNT OF SPACE TO SAVE
         BNP   NORLSE         NONE TO RELEASE
         SPACE 1
         STH   R1,SIZEFREE    SAVE AMOUNT TO BE RELEASED
         SPACE
         BAL   R14,OPENRLSE   OPEN THE 'RELEASE' DCB
         SPACE
         LH    R0,SIZEDS      TOTAL AMOUNT IN DATA SET
         SH    R0,SIZEFREE    MINUS AMOUNT TO FREE
         SLL   R0,16          LEAVES REL # OF LAST TRACK
         LA    R1,X'100'      FORM TTR0 OF LAST RECORD
         OR    R0,R1
         SPACE
         L     R1,RLSEDCB+(DCBDEBAD-IHADCB) GET DEB ADDRESS
         LA    R2,RLSEDCB+(DCBFDAD-IHADCB) AREA FOR CCHHR
         L     R15,CVT
         L     R15,CVTPCNVT(R15) TTR TO CCHHR CONVERT
         LR    R3,R13
         BALR  R14,R15
         LR    R13,R3
         LM    14,12,12(R13)
         SPACE 2
FREEALL  DS    0H
         BAL   R14,OPENRLSE   OPEN THE 'RELEASE' DCB IF NOT OPEN
         SPACE