SYNT     TITLE 'S Y N T A X  -  TSO JCL SYNTAX CONVERTER INTERFACE'
         MACRO
&NAME    MSG   &TEXT
         LCLA  &A
&A       SETA  K'&TEXT-2+4
&NAME    DC    H'&A',H'0',C&TEXT
         MEND
         LCLB  &SP3             MACROS FOR MVS/SP 1.3       *HMD 09/82*
&SP3     SETB  1                ARE AVAILABLE IF &SP3 = 1   *HMD 09/82*
         EJECT
         SPACE 2                                            *HMD 04/82*
R0       EQU   0                  REGISTER 0
R1       EQU   1                  REGISTER 1
R2       EQU   2                  REGISTER 2
R3       EQU   3                  REGISTER 3
R4       EQU   4                  REGISTER 4
R5       EQU   5                  REGISTER 5
R6       EQU   6                  REGISTER 6
R7       EQU   7                  REGISTER 7
R8       EQU   8                  REGISTER 8
RLINK    EQU   8                  INTERNAL LINKAGE REGISTER
R9       EQU   9                  REGISTER 9
RTEXT    EQU   9                  TEXT ADDRESS REGISTER
WORKREG  EQU   10                 WORK AREA ADDRESS REGISTER
BASEREG  EQU   11                 BASE REGISTER
R12      EQU   12                 REGISTER 12
R13      EQU   13                 O/S SAVE AREA ADDRESS REGISTER
R14      EQU   14                 O/S LINKAGE REGISTER
R15      EQU   15                 O/S ENTRY AND RC REGISTER
         SPACE 2
* FLAGS + 0                                                 *HMD 09/82*
PALLOC   EQU   X'80'               INDICATE PROCLIB ALLOCATED
PQUOTE   EQU   X'40'               INDICATE PROCLIB IN QUOTES
DQUOTE   EQU   X'20'               INDICATE DATASET IN QUOTES
QEDSW    EQU   X'10'               INDICATE QED INVOCKED            JAN
DPASS    EQU   X'08'               INDICATE DATASET PASS THRU
FTIME    EQU   X'04'               FIRST TIME THRU SWITCH
JOBSUB   EQU   X'02'               JOB CARD SUBSTITUTION SWITCH     MSA
DALLOC   EQU   X'01'               INDICATE DATASET ALLOCATED
* FLAGS + 1                                                 *HMD 09/82*
DEBUGFLG EQU   X'80'               DEBUG OPTION PRESENT     *HMD 09/82*
         TITLE 'S Y N T A X   -   TSO JCL SYNTAX CONVERTER INTERFACE'
***********************************************************************
*                                                                     *
* TITLE -      SYNTAX      TSO JCL SYNTAX CHECKER                     *
*                                                                     *
*                                                                     *
* RELEASE -    1.0         SYNTAX MVS RELEASE                         *
*                                                                     *
* AUTHOR -     MICHAEL LEE EMIGH                                      *
*              UNITED AIR LINES - EXOKF COMPUTER CENTER               *
*              1200 W. ALGONQUIN ROAD                                 *
*              ELK GROVE VILLAGE, ILLINOIS                            *
*              PHONE: 312-952-4371                                    *
*                                                                     *
*                                                                     *
* FUNCTION -   PROVIDES INTERFACE BETWEEN TSO TERMINAL USER AND THE   *
*              O/S CONVERTOR FOR SYNTAX CHECKING JCL AND OBTAINING    *
*              THE CONVERTOR MESSAGES AT THE TSO TERMINAL.            *
*                                                                     *
* COMMAND FORMAT -                                                    *
*           SYNTAX 'DSN' PROCLIB('USER PROCLIB DSN')                  *
*                                                                     *
*              PROCLIB IS AN OPTIONAL PARAMETER.                      *
*                                                                     *
* INPUT -      STANDARD LINKAGE CONVENTIONS                           *
*              REGISTER 1 - ADDRESS OF COMMAND PROCESSOR PARAMETER    *
*                           LIST
*                                                                     *
*                                                                     *
* OUTPUT -     RETURN TO TERMINAL MONITOR PROGRAM                     *
*              REGISTER 15 CONTAINS RETURN CODE AS FOLLOWS            *
*                 0 - JCL CONTAINS NO ERRORS                          *
*                 4 - JCL ERRORS FOUND                                *
*                 8 - CONVERTER FAILURE                               *
*                12 - SYNTAX COMMAND OR USER ERROR                    *
*                                                                     *
*                                                                     *
* ATTRIBUTES - REENTERANT, REUSABLE, REFRESHABLE                      *
*                                                                     *
* NOTES -      THIS ROUTINE INTERFACES TO THE MVS CONVERTER           *
*              TO PROVIDE TSO JCL SYNTAX CHECKING.                    *
*                                                                     *
*              *** THIS ROUTINE REQUIRES SVC 211 (USER WRITTEN        *
*                  TYPE 3 SYNTAX SVC) TO EXECUTE.                     *
*                                                                     *
* TRW MODIFICATIONS -                                                 *
*              12/20/79 MES A) ADDED CODE TO CHECK INPUT DATASET FOR  *
*                              A JOB CARD AND TO SUPPLY A DUMMY JOB   *
*                              CARD IF NECESSARY.                     *
*                           B) ADDED CODE TO ALLOCATE AND CONCATENATE *
*                              THE FOLLOWING STD LIST OF PROCLIBS AS  *
*                              WELL AS ANY OPTIONALLY SPECIFIED USER  *
*                              PROCLIB:                               *
*                                OSS.PROCLIB                          *
*                                SYS1.PROCLIB                         *
*                                RTS.PROCLIB                          *
*                                SYS2.PROCLIB                         *
* GTE MODIFICATIONS                                         *HMD 04/82*
*                                                           *HMD 04/82*
*  ====>    (04/30/82 - HOWARD M. DEAN)                     *HMD 04/82*
*                                                           *HMD 04/82*
*      1. CHANGE STANDARD PROCLIB LIST TO:                  *HMD 04/82*
*                                                           *HMD 04/82*
*         SYS1.PROCLIB                                      *HMD 04/82*
*         LA.SYSM.PROCLIB                                   *HMD 04/82*
*         LA.PROD.PROCLIB                                   *HMD 04/82*
*         LA.UTIL.PROCLIB                                   *HMD 04/82*
*                                                           *HMD 04/82*
*      2. CHANGE DUMMY JOBCARD FORMAT                       *HMD 04/82*
*      3. SHOW SUBSTITUTION JCL ALWAYS                      *HMD 04/82*
*      4. FIX UP LISTING OPTIONS (EJECTS, ETC)              *HMD 04/82*
*      5. CHANGE SVC NUMBER TO 211 TO AVOID CONFLICT        *HMD 04/82*
*      6. FIX LOOP IN DAIRFAIL CALL IF DECONCAT FAILS       *HMD 04/82*
*                                                           *HMD 04/82*
* ====>   (09/11/81)  HOWARD M. DEAN)                       *HMD 09/82*
*                                                           *HMD 04/82*
*      1. CHECK FOR MVS/SP 1.3 SYSTEM - SET FLAG            *HMD 09/82*
*      2. ADD CODE TO USE GQSCAN MACRO FOR SYSDSN SEARCH    *HMD 09/82*
*      3. SHOW ALL JCL IF DEBUG OPTION SPECIFIED            *HMD 09/82*
*                                                           *HMD 04/82*
*  GTE MODIFICATIONS BY:                                    *HMD 09/82*
*                                                           *HMD 09/82*
*      HOWARD M. DEAN                                       *HMD 09/82*
*      GTE DATA SERVICES                                    *HMD 09/82*
*      4750 LINCOLN BLVD.                                   *HMD 09/82*
*      MARINA DEL REY, CA 90291                             *HMD 09/82*
*      (213) 821-0511 X330                                  *HMD 09/82*
*                                                           *HMD 09/82*
***********************************************************************
         EJECT
SYNTAX   CSECT                     TSO JCL SYNTAX CHECKER
         SAVE  (14,12),T,*         SAVE CALLERS REGISTERS
         LR    BASEREG,R15         LOAD BASE ADDRESS
         USING SYNTAX,BASEREG      EST. ADDRESSIBILITY
         LR    R9,R1               SAVE CPPL ADDRESS
         LA    R4,CORESIZE         LOAD MAIN STORAGE REQUIRED
         GETMAIN R,LV=(R4)         GET MAIN STORAGE
         LR    WORKREG,R1          SET WORK AREA BASE REGISTER
         USING SYNTAXD,WORKREG     EST. WORK AREA ADDR
         USING CPPL,R9             GIVE ASSM CPPL ADDRESS
         LR    R0,R1               SET R0 FOR CLEAR
         LR    R1,R4               SET R1 FOR CLEAR LENGTH
         SR    R3,R3               CLEAR PAD CHAR AND 0 LENGTH
         MVCL  R0,R2               CLEAR WORK AREA
         ST    R13,SAVE+4          CHAIN OLD SAVE AREA
         ST    WORKREG,8(R13)      CHAIN NEW SAVE AREA
         LR    R13,WORKREG         LOAD O/S SAVE AREA ADDRESS REG
         ST    R9,ACPPL            SAVE CPPL ADDRESS
         L     R5,CPPLECT          IS PRIMARY COMMAND NAME SYN???   JAN
         USING ECT,R5                 *                             JAN
         CLC   ECTPCMD(3),SYNTAX+5    *                             JAN
         BE    SYNSET                 * YES, MUST NOT BE FROM QED   JAN
         DROP  R5                     *                             JAN
         L     R5,CPPL+16          LOAD FIFTH WORD OF CPPL          JAN
         LTR   R5,R5                   *  AND TEST FOR ZERO         JAN
         BZ    SYNSET                  *   IS ZERO, NOT FROM QED    JAN
         CLC   8(4,R5),=C'QEDS'    IS QED INDICATOR PRESENT         JAN
         BNE   SYNSET                  *   NO                       JAN
         ST    R5,ECBPTR           STORE FIFTH WORD  ECB LIST PTR   JAN
         OI    FLAGS,QEDSW         SET INDICATOR, INVOCED BY QED    JAN
         EJECT
SYNSET   DS    0H                                                   JAN
         LA    R1,IOPLPARM         LOAD I/O PARM LIST ADDRESS
         USING IOPL,R1             SET IOPL DSECT
         MVC   IOPLUPT,CPPLUPT     MOVE UPT ADDRESS
         MVC   IOPLECT,CPPLECT     MOVE ECT ADDRESS
         LA    R15,IOPLEND         LOAD PUTLINE PB ADDRESS
         ST    R15,IOPLIOPB        STORE IN IOPL
         LA    R0,ATTENECB         LOAD ATTENTION ECB ADDRESS
         ST    R0,IOPLECB          STORE IN PARM LIST
         DROP  R1
         LA    R1,PARMLIST         LOAD PARM LIST ADDRESS
         USING PPL,R1              SET DAIR PB DSECT
         MVC   PPLUPT,CPPLUPT      MOVE UPT ADDRESS
         MVC   PPLECT,CPPLECT      MOVE ECT ADDRESS
         MVC   PPLCBUF,CPPLCBUF    MOVE CMD BUFFER ADDRESS
         ST    WORKREG,PPLUWA      STORE WORK AREA ADDRESS
         LA    R0,APDL             LOAD PDL ANSWER AREA ADDRESS
         ST    R0,PPLANS           STORE IN PARSE LIST
         LA    R0,ATTENECB         LOAD ATTENTION ECB ADDRESS
         ST    R0,PPLECB           STORE IN PARSE LIST
         MVC   PPLPCL,=A(PCL)      MOVE PCL ADDRESS TO PPL
         LINK  ,SF=(E,PARSLINK)    LINK TO PARSE ROUTINE
         LTR   R15,R15             NORMAL COMPLETION?
         BZ    PARSEOK             YES, THEN CONTINUE
         LA    R0,MSGPARSE         LOAD PARSE ERROR MSG ADDRESS
         B     INTERROR            GO RETURN TO CALLER
         EJECT
PARSEOK  DS    0H                  PARSE OK
         MVI   MEMBER,X'40'        SET CLEAR CHARACTER
         MVC   MEMBER+1(7),MEMBER  CLEAR MEMBER NAME
         MVI   DSN,X'40'           SET CLEAR CHARACTER
         MVC   DSN+1(43),DSN       CLEAR DSNAME
         MVI   PASSWORD,X'40'      SET CLEAR CHARACTER
         MVC   PASSWORD+1(7),PASSWORD CLEAR PASSWORD
         L     R2,APDL             LOAD PDL ADDRESS
         USING PDL,R2              SET PDL DSECT
         OC    PDLDEBUG,PDLDEBUG   CHECK FOR DEBUG OPTION   *HMD 09/82*
         BZ    NODEBUG             DEBUG NOT PRESENT        *HMD 09/82*
         OI    FLAGS+1,DEBUGFLG    FLAG DEBUG OPTION        *HMD 09/82*
NODEBUG  DS    0H                                           *HMD 09/82*
         NC    PDLDSN+6(2),PDLDSN+6 TEST IF DSNAME PRESENT
         BNZ   MOVEDSN             IF PRESENT THEN SKIP CODE
         MVC   DSN(4),=C'CNTL'     SET DEFAULT TO CNTL
         MVC   LDSN,=H'4'          LENGTH IS 4
         B     CKMEMBER            GO CHECK FOR MEMBER
         SPACE 2
MOVEDSN  DS    0H                  MOVE DSNAME
         L     R15,PDLDSN          LOAD DSNAME ADDRESS
         LH    R14,PDLDSN+4        LOAD DSNAME LENGTH
         STH   R14,LDSN            SAVE DSNAME LENGTH
         BCT   R14,MOVEDSN2        MINUS 1 FOR EX AND TEST LENGTH   JAN
         CLI   0(R15),C'$'         LENGTH OF DSNAME IS 1, IS IT '$' JAN
         BNE   MOVEDSN2               *  NO                         JAN
         TM    FLAGS,QEDSW         WERE WE ATTACHED BY QED          JAN
         BO    PROCALOC               *  YES                        JAN
         SPACE 2
MOVEDSN2 DS    0H                  TURN OFF SWITCH, USE DSNAME      JAN
         NI    FLAGS,255-QEDSW     TURN OFF SWITCH, USE DSNAME      JAN
         MVC   DSN(0),0(R15)       MOVE DSNAME
         EX    R14,*-6             EXECUTE FOR PROPER LENGTH
         TM    PDLDSN+6,X'40'      DSNAME IN QUOTES?
         BZ    CKMEMBER            NO, THEN SKIP CODE
         OI    FLAGS,DQUOTE        INDICATE DSN IN QUOTES
         SPACE 2
CKMEMBER DS    0H                  CHECK FOR MEMBER NAME
         NC    PDLDSN+14(2),PDLDSN+14 MEMBER NAME ENTERED
         BZ    CKPSWD              IF NOT THEN GO CHECK PSWD
         L     R15,PDLDSN+8        LOAD MEMBER NAME ADDRESS
         LH    R14,PDLDSN+12       LOAD MEMBER LENGTH
         BCTR  R14,0               MINUS 1 FOR EXECUTE
         MVC   MEMBER(0),0(R15)    MOVE MEMBER
         EX    R14,*-6             EXECUTE FOR PROPER LENGTH
         SPACE 2
CKPSWD   DS    0H                  CHECK FOR PASWORD
         NC    PDLDSN+22(2),PDLDSN+22 PASSWORD ENTERED
         BZ    PROCALOC            IF NOT THEN GO SETUP DAIR
         L     R15,PDLDSN+16       LOAD PASSWORD ADDRESS
         LH    R14,PDLDSN+20       LOAD PASSWORD LENGTH
         BCTR  R14,0               MINUS 1 FOR EXECUTE
         MVC   PASSWORD(0),0(R15)  MOVE PSWD
         EX    R14,*-6             EXECUTE FOR PROPER LENGTH
         EJECT
PROCALOC DS    0H              *** ALLOCATE PROCLIBS ***            MES
         LA    R1,DAIRPARM         DAIR PARM LIST ADDR              MES
         USING DAPL,R1             DSECT ADDRESSABILITY             MES
         MVC   DAPLUPT,CPPLUPT     MOVE UPT ADDRESS                 MES
         MVC   DAPLECT,CPPLECT     MOVE ECT ADDRESS                 MES
         LA    R0,ATTENECB         ADDR OF ATTENTION ECB            MES
         ST    R0,DAPLECB          STORE ECB ADDR IN PARM LIST      MES
         MVC   DAPLPSCB,CPPLPSCB   MOVE PSCB ADDR                   MES
         LA    R0,DAIRPB           LOAD DAIR PB ADDR                MES
         ST    R0,DAPLDAPB         STORE IN DAPL                    MES
         MVC   DAIRCAT(LDAPB0C),MDAPB0C INIT CONCAT LIST            MES
         LA    R3,DAIRCAT          ADDRESS OF REAL CONCATENATION LIST
         USING DAPB0C,R3           DSECT ADDRESSABILITY             MES
         SR    R12,R12             INIT PROC COUNT REG              MES
         MVC   DAIRPB(LDAPB08),MDAPB08  INIT DAIR ALLOC LIST        MES
         LA    R8,DAIRPB           ADDR OF REAL DAIR ALLOC LIST     MES
         USING DAPB08,R8           DSECT ADDRESSABILITY             MES
         MVC   DA08DDN,=CL8'IEFPDSI' SET REQUIRED DDNAME            MES
         LA    R0,PROCDSN          DATASET NAME TO BE ALLOC         MES
         ST    R0,DA08PDSN         STORE IN PARM LIST               MES
         NC    PDLKPROC,PDLKPROC   WAS A USER PROCLIB SPECIFIED ?   MES
         BZ    PROCSTD             NO                               MES
         LA    R12,1(R12)          BUMP PROCLIB COUNT               MES
         L     R15,PDLPROCN        USER PROCLIB DSNAME ADDR         MES
         LH    R14,PDLPROCN+4      USER PROCLIB DSNAME LENGTH       MES
         STH   R14,PROCDSN         SAVE LENGTH                      MES
         BCTR  R14,0               -1 FOR MOVE                      MES
         MVC   PROCDSN+2(0),0(R15) MOVE USER DSNAME                 MES
         EX    R14,*-6             DO PROPER LENGTH MOVE            MES
         TM    PDLPROCN+6,X'40'    WAS DSN IN QUOTES ?              MES
         BO    USERALOC            YES. GO ALLOCATE.                MES
         OI    DA08CTL,DA08UID     NO. DAIR MUST PREFIX USERID.     MES
USERALOC LINK  ,SF=(E,DAIRLINK)    GO DO DAIR CALL                  MES
         LTR   R15,R15             PROCLIB ALLOCATED?               MES
         BZ    USERAL01            NO, THEN GO TO DAIR FAIL ROUTINE MES
         BAL   R14,DAIRFAIL        CALL DAIRFAIL SUBROUTINE *HMD 04/82*
         B     RETURN              RETURN TO MVS            *HMD 04/82*
USERAL01 MVC   12(8,R3),DA08DDN    SAVE ALLOC DDN IN CONCAT LIST    HMD
         MVC   DA08DDN,=CL8' '     BLANK OUT ALLOC DDNAME           MES
         NI    DA08CTL,255-DA08UID TURN OFF PREFIX FLAG             MES
         LA    R3,8(R3)            BUMP TO NEXT EMPTY CONCAT SLOT   MES
         EJECT
PROCSTD  DS    0H       ***  ALLOCATE STD LIST OF PROCLIBS ***      MES
         LA    R4,ALLOCLST         ADDR OF ALLOCATION LIST          MES
PROCLOOP DS    0H                                                   MES
         TM    0(R4),X'80'         END OF LIST ?                    MES
         BO    PROCCNAT            YES. GO CONCATENATE ALL PROCLIBS MES
         ST    R4,DA08PDSN         STORE ADDR OF DSN TO BE ALLOCATEDMES
         LINK  ,SF=(E,DAIRLINK)    GO ALLOCATE                      MES
         LTR   R15,R15             WAS ALLOCATION SUCCESSFUL ?      MES
         BZ    PROCL01             YES..CONTINUE                    MES
         BAL   R14,DAIRFAIL        CALL DAIRFAIL ROUTINE    *HMD 04/82*
         B     RETURN              RETURN TO MVS.           *HMD 04/82*
PROCL01  LA    R12,1(R12)          YES. BUMP ALLOCATED PROCLIB CNT  HMD
         MVC   12(8,R3),DA08DDN    SAVE DDNAME ASSIGNED BY ALLOC    MES
         MVC   DA08DDN,=CL8' '     CLEAR ALLOC LIST DDNAME          MES
         LA    R3,8(R3)            BUMP TO NEXT EMPTY CONCAT SLOT   MES
         LA    R4,46(R4)           BUMP TO NEXT PROCLIB DSN         MES
         B     PROCLOOP            GO SEE IF IT SHOULD BE ALLOC     MES
         SPACE 2
PROCCNAT DS    0H           *** CONCATENATE ALLOCATED PROCLIBS ***  MES
         LA    R3,DAIRCAT          RESET ADDR OF CONCAT LIST        MES
         ST    R3,DAPLDAPB         STORE IN DAIR PARM LIST          MES
         STH   R12,DA0CNUMB        STORE # OF PROCLIBS IN DAIR LIST MES
         LINK  ,SF=(E,DAIRLINK)    GO CONCATENATE PROCLIBS          MES
         LTR   R15,R15             CONCATENATION SUCCESSFUL ?       MES
         BZ    DAIRDS              YES..CONTINUE            *HMD 04/82*
         BAL   R14,DAIRFAIL        NO..GO PRINT ERROR       *HMD 04/82*
         B     RETURN              RETURN TO MVS            *HMD 04/82*
         DROP  R3                                                   MES
         EJECT
DAIRDS   DS    0H          *** ALLOCATE INPUT DATASET ***
         OI    FLAGS,PALLOC        INDICATE PROCLIB ALLOCATED
         TM    FLAGS,QEDSW         ARE WE USING QED INCORE DATA     JAN
         BO    CONVERT               * YES, BYPASS ALLOC & OPEN     JAN
         LA    R1,DAIRPARM         RELOAD DAIR PARM LIST ADDRESS
         LA    R8,DAIRPB           RELOAD PB ADDRESS                MES
         ST    R8,DAPLDAPB         STORE IN DAIR PARM LIST          MES
         MVC   DAIRPB(LDAPB08),MDAPB08 RESET PATTERN DAPB
         LA    R0,PDSN             LOAD DSNAME ADDRESS
         ST    R0,DA08PDSN         STORE IN DAPB
         MVC   DA08DDN,=CL8'IEFRDER' SET DDNAME
         MVC   DA08MNM,MEMBER      SET MEMBER NAME
         MVC   DA08PSWD,PASSWORD   SET PASSWORD
         TM    FLAGS,DQUOTE        DSNAME IN QUOTES
         BO    *+8                 YES, THEN SKIP NEXT STMT
         OI    DA08CTL,DA08UID     INDICATE NAME NOT IN QUOTES
         LINK  ,SF=(E,DAIRLINK)    LINK TO DAIR ROUTINE
         LTR   R15,R15             DAIR COMPLETE NORMALLY?
         BZ    DAIROK              YES, THEN CONTINUE
         TM    FLAGS,DPASS+DQUOTE  BEEN HERE BEFORE OR DSN IN QUOTES?
         BNO   LBL001              NO, CONTINUE             *HMD 04/82*
         BAL   R14,DAIRFAIL        INDICATE ERROR           *HMD 04/82*
         B     RETURN              RETURN TO MVS            *HMD 04/82*
LBL001   ST    R15,SAVE            SAVE RETURN CODE
         OI    FLAGS,DQUOTE+DPASS  INDICATE PASSED THRU
         LA    R1,PARMLIST         LOAD PARM LIST ADDRESS
         USING DFPL,R1             SET DFPL DSECT
         MVC   DFPLUPT,CPPLUPT     MOVE UPT ADDRESS
         MVC   DFPLECT,CPPLECT     MOVE ECT ADDRESS
         LA    R0,ATTENECB         LOAD ATTENTION ECB ADDRESS
         ST    R0,DFPLECB          STORE IN DFPL
         LA    R2,DEFPB            LOAD PB ADDRESS
         ST    R2,DFPLDFPB         STORE IN DFPL
         USING DFPB,R2             SET DEFAULT PB DSECT
         LA    R0,PDSN             LOAD DSNAME ADDRESS
         ST    R0,DFPBDSN          STORE IN DFPB
         MVC   DFPBPSCB,CPPLPSCB   MOVE PSCB ADDRESS
         MVI   DFPBCODE,X'04'      SET FUNCTION CODE
         MVI   DFPBCNTL,DFPBUID    INDICATE TO PREFIX USERID
         LINK  ,SF=(E,DEFLINK)     LINK TO DEFAULT ROUTINE
         LTR   R15,R15             TEST FOR SUCCESSFUL COMPLETION
         BZ    DAIRDS              GO RETRY DAIR
         L     R15,SAVE            RELOAD RETURN CODE
         BAL   R14,DAIRFAIL        GO TO DAIR FAIL ROUTINE
         B     RETURN              RETURN TO MVS            *HMD 04/82*
         EJECT
DAIROK   DS    0H                  CONTINE WITH CP
         OI    FLAGS,DALLOC        INDICATE DATASET ALLOCATED
         MVC   SYNDCB(LQSDCB),QSDCB BUILD INPUT DCB
         LA    R0,SYNDCB           LOAD INPUT DCB ADDRESS
         ST    R0,OPLIST           STORE DCB ADDRESSES
         MVI   OPLIST,128          SET UP FOR OPEN INPUT
         OPEN  ,MF=(E,OPLIST)      OPEN JCL DATASET
         TM    SYNDCB+48,X'10'     OPEN SUCCESSFUL?
         BO    CONVERT             CONTINUE
         LA    R0,OPENMSG          LOAD OPEN ERROR MSG ADDRESS
         B     INTERROR            GO TRY IT AGAIN
         SPACE 2
CONVERT  DS    0H                  CONVERT JCL
         MVC   LINE(2),=H'254'     SET LINE LENGTH
         OI    FLAGS,FTIME         SET FIRST TIME SWITCH
         LA    R1,EXITLIST         LOAD PROGRAM EXIT LIST
         LA    R15,=CL8'IEFPDSI'   LOAD PROCLIB DDNAME ADDRESS
         SR    R0,R0               NO OVERRIDES OR OPTIONS
         ICM   R0,8,=X'40'         INDICATE INTERPRET
         SVC   211                 ISSUE CONVERTER INTERFACE SVC 211
* NOTE THAT SVC NUMBER HAS BEEN CHANGED TO 211              *HMD 04/82*
         ST    R15,SAVE            SAVE RETURN CODE
         C     R15,=F'4'           COMP MAXIMUM RETURN CODE
         BH    FAILURE             IF TOO HIGH, THEN CONVERTER ERROR
         BE    RETURN              JCL ERROR
         LA    R0,MSGNERR          LOAD SUCCESS MESSAGE ADDRESS
         BAL   RLINK,PUTLINE       LINK AND WRITE LINE TO TERMINAL
         B     RETURN              GO RETURN TO TMP
         SPACE 2
FAILURE  DS    0H
         LH    R2,CONVMSG          LOAD ERROR MESSAGE LENGTH
         BCTR  R2,0                MINUS 1 FOR MOVE
         MVC   MSGTEXT(0),CONVMSG  MOVE MSG TEXT
         EX    R2,*-6              EXECUTE MOVE FOR PROPER LENGTH
         CVD   R15,EXITSAVE        CONVERT RC TO DECIMAL
         OI    EXITSAVE+7,X'0F'    NEUTRALIZE SIGN
         UNPK  MSGTEXT+34(3),EXITSAVE(8) UNPACK RC INTO MSG
         LA    R0,MSGTEXT          LOAD MSG ADDRESS
         BAL   RLINK,PUTLINE       LINK AND WRITE LINE TO TERMINAL
         MVC   SAVE(4),=F'8'       SET RETURN CODE TO 8
         B     RETURN              GO RETURN TO TMP
         SPACE 2
INTERROR DS    0H                  INTERNAL ERROR
         BAL   RLINK,PUTLINE       LINK AND WRITE LINE TO TERMINAL
         MVC   SAVE(4),=F'12'      SET RETURN CODE TO 12
         EJECT
RETURN   DS    0H
         TM    SYNDCB+48,X'10'     DCB OPEN?
         BZ    RETURN0             NO, THEN SKIP CODE
         CLOSE ,MF=(E,OPLIST)      CLOSE DCB
         FREEPOOL SYNDCB           FREE BUFFER POOLS
         EJECT
RETURN0  DS    0H                  CHECK FOR DS ALLOCATION  *HMD 04/82*
         TM    FLAGS,DALLOC        DATASET ALLOCATED?
         BZ    RETURN3             IF NOT THEN SKIP CODE
         MVC   DAIRPB(LDAPB18),MDAPB18 MOVE IN FREE DAIR PB
         LA    R2,DAIRPB           LOAD PARM BLOCK ADDR     *HMD 04/82*
         USING DAPB18,R2           ADDRESS THE DSECT        *HMD 04/82*
         MVC   DA18DDN,=CL8'IEFRDER' MOVE IN DDNAME
         LA    R0,PDSN             LOAD DSNAME ADDRESS
         ST    R0,DA18PDSN         STORE IN DAIR PB
         MVC   DA18MNM,MEMBER      MOVE IN MEMBER NAME
         TM    FLAGS,DQUOTE        DSNAME IN QUOTES?
         BO    RETURN1             YES, THEN SKIP CODE
         OI    DA18CTL,DA18UID     INDICATE TO PREFIX USERID
         SPACE 2
RETURN1  DS    0H                  FREE JCL DATASET
         LA    R1,DAIRPARM         LOAD DAIR PARM LIST ADDR
         LINK  ,SF=(E,DAIRLINK)    LINK TO DAIR ROUTINE
         DROP  R2                                           *HMD 04/82*
         TM    FLAGS,PALLOC        WAS PROCLIB ALLOCATED
         BZ    RETURN3             IF NOT, THEN SKIP CODE
         LA    R1,DAIRPARM         ADDR OF DAIR PARM LIST
         USING DAPL,R1             DSECT ADDRESSABILITY
         LA    R0,DAIRPB           ADDR OF DECONCATENATE AREA
         ST    R0,DAPLDAPB         STORE IN DAIR PARM LIST
         MVC   DAIRPB(LDAPB10),MDAPB10 INIT DECONCAT AREA
         LINK  ,SF=(E,DAIRLINK)    GO DECONCATENATE PROCLIBS
         LTR   R15,R15             WAS REQUEST SUCCESSFUL ?
         BZ    DEALLOC             YES, CONTINUE            *HMD 04/82*
         BAL   R14,DAIRFAIL        CALL DAIRFAIL ROUTINE    *HMD 04/82*
         MVC   DAIRPB(LDAPB18),MDAPB18 INIT DAIR FREE AREA  *HMD 04/82*
         LA    R2,DAIRPB           ADDR OF DAIR 'FREE' AREA *HMD 04/82*
         USING DAPB18,R2                                    *HMD 04/82*
         MVC   DA18DDN,PRDDNAM     MOVE PROCLIB DDNAME      *HMD 04/82*
         XC    DA18PDSN,DA18PDSN   CLEAR DSNAME POINTER     *HMD 04/82*
         LA    R1,DAIRPARM         ADDR OF DAIR PARM LIST   *HMD 04/82*
         LINK  ,SF=(E,DAIRLINK)    GO FREE IEFPDSI DDNAME   *HMD 04/82*
         LTR   R15,R15             CHECK RETURN CODE        *HMD 04/82*
         BZ    DEALLOC             NOW..TRY AND DEALLOC     *HMD 04/82*
         BAL   R14,DAIRFAIL        OTHERWISE PRINT ERROR    *HMD 04/82*
         DROP  R2                  NO LONGER NEEDED NOW     *HMD 04/82*
DEALLOC  DS    0H              *** DEALLOCATE PROCLIBS ***
         L     R2,APDL             PDL ADDRESS
         USING PDL,R2
         NC    PDLKPROC,PDLKPROC   ANY USER PROCLIB ALLOCATED ?
         BZ    DEALSTD             NO
         L     R15,PDLPROCN        ADDR OF USER PROCLIB DSN
         MVC   DAIRPB(LDAPB18),MDAPB18 INIT DAIR FREE AREA
         LA    R2,DAIRPB           ADDR OF DAIR 'FREE' AREA
         USING DAPB18,R2
         ST    R15,DA18PDSN        STORE ADDR OF DSN TO BE FREED
         TM    FLAGS,PQUOTE        WAS DSN ENTERED IN QUOTES ?
         BO    *+8                 YES.
         OI    DA18CTL,DA18UID     NO. DAIR MUST PREFIX USERID
         LA    R1,DAIRPARM         ADDR OF DAIR PARM LIST
         LINK  ,SF=(E,DAIRLINK)    GO FREE USER SPECIFIED PROCLIB
DEALSTD  DS    0H               ** FREE STD PROCLIB LIST **
         NI    DA18CTL,255-DA18UID TURN OFF DAIR PREFIX BIT
         LA    R3,ALLOCLST         ADDR OF LIST OF STD PROCLIBS
DEALOOP  DS    0H
         TM    0(R3),X'80'         END OF LIST
         BO    RETURN3             YES
         ST    R3,DA18PDSN         ADDR OF DSN TO BE FREED
         LINK  ,SF=(E,DAIRLINK)    GO FREE IT
         LA    R3,46(R3)           BUMP TO NEXT DSN
         B     DEALOOP             GO PROCESS IT
         EJECT
RETURN3  DS    0H                  RETURN TO CALLING ROUTINE
         IKJRLSA APDL              RELEASE PDL STORAGE
         LA    R0,CORESIZE         LOAD FREEMAIN LENGTH
         LR    R1,WORKREG          LOAD FREEMAIN ADDRESS
         L     R8,SAVE             RELOAD RETURN CODE
         L     R13,SAVE+4          RELOAD OLD SAVE AREA ADDRESS
         FREEMAIN R,LV=(0),A=(1)   FREE WORK AREA
         LR    R15,R8              RETURN CODE TO REG 15
         RETURN (14,12),RC=(15)    RETURN TO CALLER
         EJECT
DAIRFAIL DS    0H                  DAIR FAIL ANALYSIS ROUTINE
*                                                           *HMD 04/82*
* DAIR FAIL ROUTINE -                                       *HMD 04/82*
* CALLED BY BALR R14,DAIRFAIL - RETURN TO R14 ADDRESS       *HMD 04/82*
*                                                           *HMD 04/82*
         ST    R14,DFSAVE          SAVE RETURN ADDRESS      *HMD 04/82*
         XC    PARMLIST(40),PARMLIST CLEAR PARM LIST
         LA    R1,PARMLIST         LOAD PARM LIST ADDRESS
         USING DFPARMS,R1          SET DAIR FAIL DSECT