VSAM     TITLE  'VSAMCAT - VSAM CATALOG CLUSTER PUNCH'      *HMD 04/81*
         MACRO
         BEGIN &NAME=' ',&BASE=YES,&SAVE=NO,&R1=14,&R2=12,             *
               &BASEREG=,&USING=YES,&TIME=,&CHAIN=NO,&SAVLEN=72
         LCLC  &WORK
         AIF   ('&NAME' NE ' ').INNAME
         MNOTE 12,'*** PARM NAME=???????? OMITTED ***'
         MEXIT
.INNAME  ANOP
         AIF   ('&TIME' EQ 'ONLY').NAME
DATESTMP CSECT
         DC    CL8'&NAME'
&WORK    SETC  '&SYSTIME'(1,2).'&SYSTIME'(4,2)
         DC    CL4'&WORK'              TIME OF ASSEMBLY
&WORK    SETC  '&SYSDATE'(1,2).'&SYSDATE'(4,2).'&SYSDATE'(7,2)
         DC    CL6'&WORK'              DATE OF ASSEMBLY
&NAME    CSECT
         ENTRY &NAME
         AIF   ('&SAVE' EQ 'NO').NOSAVE
         SAVE  (&R1,&R2)
.NOSAVE  ANOP
         AIF   ('&BASE' EQ 'USING').USING
         AIF ('&BASE' EQ 'NO').NOBASE
         BALR  BASEREG,0
.USING   ANOP
$NTRY    DS    0H
         USING *,BASEREG
.NOBASE  ANOP
         AIF   ('&CHAIN' EQ 'NO').NOCHAIN
         GETMAIN R,LV=&SAVLEN
         LR    15,1
         LR    11,13
         ST    13,4(15)            STANDARD
         ST    15,8(13)               REGISTER
         LR    13,15                        CONVENTIONS
         LM    0,1,20(11)                LINKAGE
.NOCHAIN ANOP
         AIF   ('&BASEREG' EQ '').NAME
BASEREG  EQU   &BASEREG                BASE REGISTER EQUATE
.NAME    ANOP
.END     MEND
         TITLE  'VSAMCAT - VSAM CATALOG CLUSTER PUNCH'      *HMD 04/81*
VSAMCAT  CSECT                                              *HMD 04/81*
***********************************************************************
R0       EQU   0
R1       EQU   1
R2       EQU   2
R3       EQU   3
R4       EQU   4
R5       EQU   5
R6       EQU   6
R7       EQU   7
R8       EQU   8
R9       EQU   9
R10      EQU   10
R11      EQU   11
R12      EQU   12
R13      EQU   13
R14      EQU   14
R15      EQU   15
BASEREG  EQU   R12
         EJECT
***********************************************************************
UCATSETS DSECT
         DS    X             NO OF SETS-OF-FIELDS
         DS    X                       RESERVED
USETDISP DS    XL2                     DISPLACEMENT FROM THE BEGINNING
*                                      OF ALL SETS
USETYPE  DS    X                       BIT1 = DELETED
*                                      BITS 2-7 = TYPE CODE
USETSEQ  DS    X                       SET TYPE SEQUENCE NUMBER
***********************************************************************
         EJECT
***********************************************************************
VOLIDSET DSECT
         DS    XL2
         DS    XL3
VOLDTYP  DS    X                       DEVICE TYPE CODE (A,B OR D)
VOLSER   DS    CL6                     VOLUME SERIAL NUMBER
         DS    XL22
VOLTRKCA DS    XL2                     NO OF TRACKS PER CONTROL INTERVL
         DS    XL3
VOLLKEY  DS    XL2                     LOW KEY LENGTH
VOLHKEY  DS    XL2                     HIGH KEY LENGTH
         EJECT
ASSOCSET DSECT                         ASSOCIATIVE SET OF FIELDS
         DS    XL2
ASSOCTYP DS    X                       TYPE OF FIELD D, I, OR G
ASSOCNAM DS    XL3                     CONTROL INTERVAL NUMBER
         EJECT
DSBDSECT DSECT                         ACCESS METHOD DATA STAT BLOCK
         DS    XL6
AMDRKP   DS    H                       RELATIVE KEY POSITION
AMDKEYLN DS    H                       KEY LENGTH
AMDPCTCA DS    X                       CONTROL AREA FREE SPACE
AMDPCTCI DS    X                       CONTROL INTERVAL FREE BYTES
AMDCIPCA DS    XL2                     NO OF CI PER CA
         DS    XL6
AMDCINV  DS    XL4                     CONTROL INTERVAL SIZE
AMDLRECL DS    XL4                     MAXIMUM RECORD SIZE
         DS    XL30
AMDNEXT  DS    XL2                     NO OF EXTENTS IN THE DATA SET
AMDNLR   DS    XL4                     USER SUPPLIED DATA RECORDS
         EJECT
IEFJFCBN DSECT
         IEFJFCBN LIST=YES
         EJECT
         BEGIN NAME=VSAMCAT,SAVE=YES,CHAIN=YES
         L     R4,0(R1)                LOAD PARM ADDRESS
         LH    R5,0(R4)                LOAD PARM LENGTH
         N     R5,=F'65535'            CLEAR HI ORDER
         BZ    AROUND                  NO PARM SPECIFIED
         CH    R5,=H'8'                LENGTH GT 8?         *HMD 04/81*
         BH    AROUND                  YES, IGNORE          *HMD 04/81*
         NI    PASSWORD,0              CLEAR LENGTH         *HMD 04/81*
         MVI   PASSWORD+1,C' '         CLEAR                *HMD 04/81*
         MVC   PASSWORD+2(7),PASSWORD      PASSWORD FIELD   *HMD 04/81*
         STC   R5,PASSWORD             SAVE LENGTH          *HMD 04/81*
         BCTR  R5,0                    GET READY FOR EX     *HMD 04/81*
A        MVC   PASSWORD+1(0),2(R4)     MOVE IN PASSWORD     *HMD 04/81*
         EX    R5,A                    DO IT                *HMD 04/81*
AROUND   LR    R10,R12                 LOAD SECOND BASE REGISTER
         AH    R10,=H'4096'            INCREMENT BASE REG BY 1K
         USING $NTRY+4096,R10          DECLARE SECOND BASE REGISTER
         LR    R9,R10                  LOAD THIRD BASE REGISTER
         AH    R9,=H'4096'             INCREMENT BASE REG BY 1K
         USING $NTRY+8192,R9           DECLARE THIRD BASE REGISTER
         BAL   R14,PRTDSCB             PRINT VOLUME TABLE OF CONTENTS
         L     R13,4(R13)              RESTORE SYSTEM SAVE AREA ADDR
         RETURN (14,12),T,RC=0         RETURN TO SYSTEM
         LTORG
         EJECT
***********************************************************************
* MODIFY JFCB TO READ THE VTOC DATA SET AND PRINT ALL FORMAT 1 DSCB'S *
***********************************************************************
PRTDSCBE DC    F'0'                    SAVE AREA FOR RETURN POINTER
PRTDSCB  DS    0H
         ST    R14,PRTDSCBE            SAVE RETURN POINTER
         OPEN  (JCLPUNCH,(OUTPUT),SYSPUNCH,(OUTPUT))
        RDJFCB (VTOC,(INPUT))          READ JOB FILE CONTROL BLOCK
         LTR   R15,R15                 READ SUCCESSFUL
         BZ    OPENVTOC                YES, BRANCH
         LA    R1,*                    GET ADDR FOR ABEND
         ABEND (R1),DUMP
OPENVTOC DS    0H
         LA    R1,VTOCJFCB             LOAD JOB FILE CONTROL BLOCK PTR
         USING JFCBDSNM,R1             DECLARE BASE FOR JFCB
         MVC   JCLVOLID,JFCBVOLS       SAVE VOL SER
         L     R15,=A(GETVSAM)         LOAD VSAM ROUTINE ADDRESS
         BALR  R14,R15                 PROCESS VSAM DATA SETS
         CLOSE JCLPUNCH
         CLOSE SYSPUNCH                CLOSE CARD PUNCH DATA SET
         L     R14,PRTDSCBE            LOAD RETURN POINTER
         BR    R14                     RETURN
***********************************************************************
         EJECT
GETSPACE DS    0H
         CLI   0(R1),C' '              IS BYTE BLANK ?
         BZR   R14                     YES, BRANCH
         LA    R1,1(R1)                LOAD NEXT BYTE ADDRESS
         B     GETSPACE                GO CHECK BYTE
         EJECT
***********************************************************************
SYSPUNCH DCB   DDNAME=CATSTAT,RECFM=FB,MACRF=(PM),DSORG=PS
         EJECT                                              *HMD 04/81*
PUNCHBUF DC    CL133' '                SYSPUNCH DATA SET BUFFER
         ORG   PUNCHBUF
PCHDSN   DS    CL44                    DATA SET NAME
         DS    C
PCHVOLID DS    CL6                     VOLUME SERIAL NUMBER
         DS    C
PCHTRK   DS    CL5                     TOTAL ALLOCATION OF DATA SET
         DS    C
PCHLOWCC DS    CL3                     LOW CYLINDER ADDRESS
PCHLOWTT DS    CL2                     LOW TRACK
         DS    C
PCHRELAD DS    CL5                     BEGINNING RELATIVE TRACK ADDRESS
         DS    C
PCHUSED  DS    CL5                     TOTAL TRACKS USED
         DS    C
PCHEXTNO DS    CL3                     NUMBER OF EXTENTS
         DS    C
PCHBLKSZ DS    CL5                     BLOCK SIZE
         DS    C
PCHLRECL DS    CL5                     RECORD LENGTH
         DS    C
PCHDSORG DS    CL2
         DS    C
PCHRECF1 DS    C                       RECORD FORMAT CODES
PCHRECF2 DS    C                       RECORD FORMAT CODES
PCHRECF3 DS    C                       RECORD FORMAT CODES
         DS    C
PCHDIR   DS    CL4                     NO OF DIRECTORY BLOCKS
         DS    C
PCHDIRUS DS    CL4                     NO OF DIRECTORY BLOCKS USED
         DS    C
PCHCREDT DS    0CL5                    CREATION DATE (YYDDD)
PCHCREYY DS    CL2                     CREATION YEAR
PCHCREDD DS    CL3                     CREATION DAY
         DS    C
PCHEXPDT DS    0CL5                    EXPIRATION DATE (YYDDD)
PCHEXPYY DS    CL2                     EXPIRATION YEAR
PCHEXPDD DS    CL3                     EXPIRATION DAY
         ORG
PCHDEVTP DS    XL24                    DEVICE TYPE INFORMATION
***********************************************************************
         SPACE 2
***********************************************************************
         DS    0H
DSCBEXT  DS    0XL10                   EXTENT WORK AREA
DSCBTYPE DS    X
DSCBM    DS    X                       EXTENT NUMBER
DSCBLCC  DS    XL2                     LOW CYLINDER ADDRESS
DSCBLHH  DS    XL2                     LOW TRACK ADDRESS
DSCBHCC  DS    XL2                     HIGH CYLINDER ADDRESS
DSCBHHH  DS    XL2                     HIGH TRACK ADDRESS
WORK1    DC    D'0'                    PACK UNPACK WORK ARES
TRKCYL   DC    H'0'                    NO OF TRACKS PER CYLINERS
***********************************************************************
***********************************************************************
         EJECT                                              *HMD 04/81*
JCLPUNCH DCB   DDNAME=DEFINE,DSORG=PS,LRECL=80,MACRF=(PM)
         EJECT                                              *HMD 04/81*
JCLBUF   DC    CL80' '                 RECORD BUFFER
         ORG   JCLBUF
JCLBUF00 DS    CL2                     JCL INDICATOR (//)
JCLBUF02 DS    CL8
         DS    C
JCLBUF12   DS  CL4
JCLBUF16 DS    CL20
         ORG   JCLBUF
         DS    CL2
JCLDDN   DS    CL8                     DATA DEFINITION NAME
         DS    CL11
JCLUNIT  DS    CL3                     UNIT PREFIX
         DS    CL10
JCLVOL   DS    CL3                     VOLUME PREFIX
         DS    CL9
JCLDSN   DS    CL3                     DATA SET NAME PREFIX
         DS    CL10
JCLDISP  DS    CL3                     DISP PREFIX
         ORG   JCLBUF+72
JCLSKEY1 DS    C
JCLSKEY2 DS    CL5
         ORG
***********************************************************************
         EJECT
***********************************************************************
JCLOUT14 DC    F'0'                    REGISTER SAVE AREA
JCLOUT   DS    0H
         ST    R14,JCLOUT14            SAVE REGISTER
         PUT   JCLPUNCH,JCLBUF         PUNCH JCL RECORD
JCLWRITN DS    0H
         MVI   JCLBUF,C' '             CLEAR BUFFER
         MVC   JCLBUF+1(71),JCLBUF     TO SPACES
         L     R14,JCLOUT14            LOAD REGISTER
         BR    R14                     RETURN
JCLVOLID DC    CL6' '                  VOL SER NUMBER
***********************************************************************
         EJECT
***********************************************************************
* VOLUME TABLE OF CONTENTS DCB AND WORK AREAS                         $
***********************************************************************
VTOC     DCB   DDNAME=VTOC,DSORG=PS,EXLST=VTOCXLST,RECFM=F,MACRF=R,    *
               BLKSIZE=096,KEYLEN=44
VTOCXLST DC    X'87',AL3(VTOCJFCB)
VTOCJFCB DC    XL176'0'                JOB FILE CONTROL BLOCK
VTOCBUF  DC    XL140'0'                VOLUME TABLE OF CONTENTS BUFFER
SAVDSN   DC    CL44' '                 DATA SET NAME
         EJECT                                              *HMD 04/81*
UCATDCB  DCB   DDNAME=USERCAT,DSORG=PS,EXLST=VTOCXLST,RECFM=F,MACRF=R
         EJECT
***********************************************************************
* PROCESS VSAM USER CATALOG TO SEE IF THIS IS THE RIGHT VOL SER       *
***********************************************************************
GETVSAM  DS    0H
         STM   R14,R1,VSAMRSA          SAVE REGISTERS
OPENMAST DS    0H
         RDJFCB (UCATDCB,(INPUT))
         LTR   R15,R15                 GOOD READ
         BZ    GOTUCAT                 ..YES
         LA    R1,*
         ABEND (R1),DUMP
GOTUCAT  DS    0H
         LA    R15,VTOCJFCB            LOAD VTOCJFCB ADDRESS
         USING JFCBDSNM,R15
         MVC   UCATDSN,JFCBDSNM        DATASET NAME
         BAL   R14,GETUSER             PROCESS USER CATALOG
         LM    R14,R1,VSAMRSA          LOAD REGISTERS
         BR    R14                     RETURN
         EJECT
VSAMRSA  DC    4F'0'                   REGISTER SAVE AREA
MASTBUF  DS    CL512                   MASTER CATLG RECORD BUFFER
         ORG   MASTBUF
         DS    X                       ZEROS
ENTIDNO  DS    XL3                     CONTROL INTERVAL NO. OF THIS
*                                      RECORD
RELIND   DS    X                       RELEASE INDICATOR
*                                      1=NONENHANCED VSAM, 1=ENHANCED
CRAVOL   DS    CL6                     CRA VOLUME SERIAL
CRAIDNO  DS    XL3                     CRA CONTROL INTERVAL NO.
CRADEVT  DS    XL4                     CRA DEVICE TYPE
CRACRETS DS    XL4                     CRA CREATION TIME STAMP
CRADITS  DS    XL4                     DATA/INDEX IDENTIFIER TIME STAMP
         DS    XL18                    ZEROS
ENTYPE   DS    C                       RECORD TYPE - 'U'
         DS    XL2                     RECORD LENGTH
         DS    X                       NO. OF VARIABLE-LENGTH FIELDS
*                                      THAT PRECEDE THE POINTER TO AN
*                                      EXTENSION RECORD. ALWAYS ZERP
         DS    X                       LENGHT OF THE FIXED-LENGHT FIELD
*                                      IN THIS RECORD
ENTNAME  DS    CL44                    USER CATALOG DS NAME
         DS    XL5                     HORIZIONAL EXTENSION RECORD PTR
NOFUSETS DS    X                       NO OF SET-OF-FILED POINTERS THAT
*                                      FOLLOW
CCREDT   EQU   MASTBUF+101,3           CLUSTER CREATION DATE
CEXPDT   EQU   MASTBUF+104,3           CLUSTER EXPIRATION DATE
         ORG
         EJECT
***********************************************************************
* SAVE THE USER CATALOG DATA SET NAME                                 *
* IF THIS IS THE USER CATALOG FOR THE VOLUME THAT WE ARE PROCESSING   *
***********************************************************************
         SPACE 1
GETUCAT  DS    0F
         STM   R14,R1,UCATRSA          SAVE REGISTERS
         CLI   ENTYPE,C'U'             IS RECORD A USER CATALOG ?
         BNER  R14                     NO, RETURN
         SR    R3,R3                   INITALIZE REGISTER
         IC    R3,NOFUSETS             LOAD NO OF USER SET POINTERS
         MH    R3,=H'5'                MULTIPLY USER SETS BY PTR LL
         A     R3,=A(NOFUSETS+L'NOFUSETS)  ADD BEG OF POINTER STES
         ST    R3,USETBEG              SAVE FIRST SET ADDRESS
         LA    R1,NOFUSETS             LOAD FIRST POINTER ADDRESS
         ST    R1,USETPTR              SAVE FIRST POINTER ADDRESS
CKUSETS  DS    0H
         L     R1,USETPTR              LOAD NEXT SET POINTER ADDRESS
         USING UCATSETS,R1             DECLARE BASE FOR SET POINTER
         TM    USETYPE,X'40'           SET DELETED ?
         BO    UCATNEXT                YES, BRANCH
         NI    USETYPE,X'3F'           TURN OFF BITS 0 AND 1
         CLI   USETYPE,X'03'           VOLUME ID SET ?
         BNE   UCATNEXT                NO, BRANCH
         LH    R1,USETDISP             LOAD SET DISPLACEMENT
         A     R1,USETBEG              ADD TO BEGINNING OF SETS
         USING VOLIDSET,R1             DECLARE BASE FOR VOL ID SET
         CLC   VOLSER,JCLVOLID         IS VOL SER SAME ?
         BNE   UCATNEXT                NO, BRANCH
         MVC   UCATDSN,ENTNAME         SAVE USER CATALOG DS NAME
         B     UCATEND                 GO RETURN FROM THIS ROUTINE
UCATNEXT DS    0F
         SR    R1,R1                   INITALIZE REGISTER
         IC    R1,NOFUSETS             LOAD NO OF USER SETS REMAINING
         SH    R1,=H'1'                DECREMENT BY 1
         BZ    UCATEND                 BRANCH IF NO MORE SETS
         STC   R1,NOFUSETS             SAVW NO OF SETS REMAINING
         L     R1,USETPTR              LOAD CURRENT SET POINTER PTR
         LA    R1,5(R1)                INCREMENT BY POINTER LENGHT
         ST    R1,USETPTR              SAVE USER SET POINTER PTR
         B     CKUSETS                 PROCESS NEXT SET POINTER
UCATEND  DS    0F
         LM    R14,R1,UCATRSA          LOAD REGISTERS
         BR    R14                     RETURN
UCATRSA  DC    4F'0'                   REGISTER SAVE AREA
USETBEG  DC    F'0'                    POINTER TO FIRST SET PAST PTRS
UCATDSN  DC    CL44' '                 USER CATALOG DATA SET NAME
USETPTR  DC    F'0'                    CURRENT SET POINTER POINTER
         EJECT
***********************************************************************
* PROCESS VSAM USER CATALOG AND GENERATE IDCAM'S CONTROL CARDS
***********************************************************************
VSDISP   DC    CL13' '                 DISP FOR VSAM ON TAPE
         SPACE 2
GETUSER  DS    0H
         STM   R14,R1,USERSA           SAVE REGISTERS
OPENUSER DS    0H
         OPEN  (USERCAT,(INPUT))       OPEN USER VSAM CATALOG
         VERIFY RPL=VRFYRPL            ISSUE VSAM VERIFY
         POINT RPL=USERRPL             POINT TO BEGIN OF DATASET
         LTR   R15,R15                 SUCCESSFUL POINT
         BZ    POINTOK
         ABEND 2,DUMP
POINTOK  DS    0H
READUSER DS    0H
         GET   RPL=USERRPL             READ VSAM USER CATALOG
         LTR   R15,R15                 SUCCESSFUL GET
         BZ    USEROK
         ABEND 3,DUMP
USEROK DS    0H
         CLI   ENTYPE,C'C'             IS RECORD DEFINING A CLUSTER ?
         BNE   READUSER                NO, BRANCH
         CLC   ENTNAME,UCATDSN         IS CLUSTER DEFINING ITSELF ?
         BE    READUSER                YES, BRANCH
         B     DELETE                  SKIP EXPORT/LISTCAT
         EJECT
***********************************************************************
* CREATE CONTROL CATDS TO DELETE THE REQUESTED CLUSTER*               *
***********************************************************************
DELETE   DS    0H
         MVC   JCLBUF02,=C'DELETE -'   MOVE TO BUFFER
         BAL   R14,JCLOUT              WRITE CONTROL CARD
         MVI   JCLBUF02,C'('           MOVE LEFT PREN TO BUFFER
         LA    R1,JCLBUF02             POINT TO BUFFER FOR SCAN
         BAL   R14,GETSPACE            FIND NEXT BLANK
         MVC   0(L'ENTNAME,R1),ENTNAME MOVE CLUSTER ANME TO BUFFER
         BAL   R14,GETSPACE            FIND END OF NAME
         MVC   0(3,R1),=C') -'         MOVE TO END OF CLUSTER NAME
         BAL   R14,JCLOUT              WRITE CONTROL CARD
         MVC   JCLBUF02(4),=C'CAT('    MOVE TO JCL BUFFER
         LA    R1,JCLBUF02             POINT TO BUFFER FOR SCAN
         BAL   R14,GETSPACE            FIND NEXT BLANK
         MVC   0(L'UCATDSN,R1),UCATDSN MOVE CATALOG DSN TO BUFFER
         BAL   R14,GETSPACE            FIND NEXT BLANK
         MVC   0(3,R1),=C') -'         MOVE TO END OF CATALOG DSN
         CLI   PASSWORD,0              NO PASSWORD?         *HMD 04/81*
         BE    PUNCHDEL                YES, BYPASS MOVE     *HMD 04/81*
         MVI   0(R1),C'/'              INSERT PASSWORD      *HMD 04/81*
         MVC   1(8,R1),PASSWORD+1                           *HMD 04/81*
         MVC   9(3,R1),=C') -'         INSERT CONTINUATION  *HMD 04/81*
PUNCHDEL BAL   R14,JCLOUT              WRITE CONTROL CARD
         MVC   JCLBUF02(7),=C'CLUSTER' MAKE DELETE FOR CLUSTER
         BAL   R14,JCLOUT              WRITE CONTROL CARD
         BAL   R14,VGETDI+L'VGETDI     PJNCH CLUSTER DEFINITION JCL
         B     READUSER                NOOP TO IMPORT
         EJECT
***********************************************************************
* END OF FILE PROCESSING FOR VSAM USER CATALOG                        *
***********************************************************************
CLOSUSER DS    0H
         RETURN (14,12),RC=4          CLUSTER NOT IN CATALOG - ERROR
ENDUSER  DS    0H
         CLOSE USERCAT                 CLOSE USER CATALOG
         LM    R14,R1,USERSA           LOAD REGISTERS
         BR    R14                     RETURN
         SPACE 2
USERSA   DC    4F'0'                   REGISTER SAVE AREA
         EJECT                                              *HMD 04/81*
USERCAT  ACB   AM=VSAM,MACRF=(KEY,SEQ,IN,NCI,CNV,DIR,SKP),             *
               DDNAME=USERCAT,EXLST=USERXLST,PASSWD=PASSWORD
         EJECT                                              *HMD 04/81*
USERXLST EXLST AM=VSAM,EODAD=ENDUSER
         EJECT                                              *HMD 04/81*
USERRPL  RPL   ACB=USERCAT,AM=VSAM,AREA=USERBUF,AREALEN=512,           *
               KEYLEN=4,ARG=VDATACI,OPTCD=(KEY,KGE,SEQ,GEN)
USERBUF  EQU   MASTBUF                 POINT USER CATALOG BUFFER TO
         EJECT                                              *HMD 04/81*
VRFYRPL  RPL   ACB=USERCAT,AM=VSAM,AREA=USERBUF,AREALEN=512,           *
               KEYLEN=4,ARG=VDATACI,OPTCD=(CNV)
         EJECT
VDATACI  DC    X'0'                    DATA RECORD ADDRESS
VDATAAD  DC    XL3'0'                  DATA CONTROL INTERVAL ADDRESS
VINDXCI  DC    X'0'                    INDEX RECORD ADDRESS
VINDXAD  DC    XL3'0'                  INDEX CONTROL INTERVAL ADDRESS
CNOFSETS DS    X                       NO OF SETS OF POINTERS
         DS    0F
PASSWORD DC    XL1'00',CL8' '          CATALOG PASSWORD
CSETPTR  DS    F                       START OF FIRST SET POINTER
CFLFLL   EQU   MASTBUF+48,1            LENGTH OF FIXED LENGTH FIELDS
CSETBEG  DC    F'0'                    START OF SET OF FIELDS
         EJECT                                              *HMD 04/81*
VGETDI   DC    F'0'                    GET DATA AND INDEX POINTERS
         ST    R14,VGETDI              STORE RETURN POINTER
         MVC   VDATAAD,=XL3'0'         CLEAR DATA RECORD POINTER
         MVC   VINDXAD,=XL3'0'         CLEAR INDEX RECORD POINTER
         MVC   JCLBUF12(16),=C'DEFINE CLUSTER -'  MOVE TO JCL BUFFER
         BAL   R14,JCLOUT              PUNCH JCL
         LA    R1,JCLBUF16             POINT TO JCL BUFFER FOR SCAN
         MVC   0(6,R1),=C'(NAME('      MOVE TO JCL BUFFER
         BAL   R14,GETSPACE            FIND NEXT BLANK
         MVC   0(L'ENTNAME,R1),ENTNAME MOVE CLUSTER NAME TO JCL BUFFER
         BAL   R14,GETSPACE            FIND NEXT BLANK
         MVC   0(3,R1),=C') -'         MOVE TO JCL BUFFER
         BAL   R14,JCLOUT              PUNCH JCL
         MVC   JCLBUF16(12),=C'NONINDEXED -'  MOVE TO JCL BUVFER
         MVC   PCHDSORG,=C'ES'         MOVE ENTRY SEQUENCE CODE TO BUFF
         SR    R2,R2                   CLEAR REGISTER
         IC    R2,CFLFLL               LOAD FIXED LENGTH FIELDS LENGTH
         A     R2,=A(MASTBUF)          BUMP BY BUFFER ADDRESS
         LA    R2,5(R2)                POINT PAST EXTENSION RECORD PTR
         MVC   CNOFSETS,0(R2)          SAVE NO OF POINTER SETS
         ST    R2,CSETPTR              STORE FIRST SET POINTER
         LA    R2,L'CNOFSETS(R2)       POINT TO FIRST SET POINTER
         SR    R1,R1                   CLEAR REGISTER
         IC    R1,CNOFSETS             INSERT NO OF FIELD POINTERS
         MH    R1,=H'5'                MULTIPLY BY LENGTH OF FIELD
         AR    R1,R2                   COMPUTE FIRST SET
         ST    R1,CSETBEG              STORE START OF FIELDS
         L     R1,CSETPTR              LOAD NO OF SETS BASE
         USING UCATSETS,R1             DECLARE BASE
VDICK    DS    0H
         CLI   CNOFSETS,X'0'           ANY MORE SETS OF FIELDS ?
         BE    VDIEND                  NO
         TM    USETYPE,X'40'           ENTRY DELETED ?
         BO    VDINEXT                 YES
         NI    USETYPE,X'3F'           STRIP OFF UNWANTED BITS
         CLI   USETYPE,X'2'            ASSOCIATED TYPE FIELD ?
         BNE   VDINEXT                 NO
         LH    R2,USETDISP             LOAD OFFSET FROM START OF FIELDS
         A     R2,CSETBEG              BUMP BY START OF SET OF FIELDS
         USING ASSOCSET,R2             DECLARE BASE
         CLI   ASSOCTYP,C'D'           DATA TYPE ?
         BE    VDIDATA                 YES
         CLI   ASSOCTYP,C'I'           INDEX TYPE ?
         BE    VDIINDX                 YES
VDINEXT  DS    0H
         LA    R1,5(R1)                POINT TO NEXT FIELD
         SR    R2,R2                   CLEAR REGISTER
         IC    R2,CNOFSETS             LOAD NO OF SETS
         BCTR  R2,0                    DECREMENT
         STC   R2,CNOFSETS             STORE NO OF SETS
         B     VDICK                   CHECK NEXT FIELD
VDIDATA  MVC   VDATAAD,ASSOCNAM        SAVE RECORD CONTROL INTERVAL NO
         B     VDINEXT                 PROCESS NEXT FIELD
VDIINDX  DS    0H
         MVC   VINDXAD,ASSOCNAM        SAVE CONTROL INTERVAL NO
         MVC   JCLBUF16(12),=CL12'INDEXED -'  MOVE TO JCL BUFFER
         MVC   PCHDSORG,=C'KS'         MOVE KEY SEQ CODE TO BUFFER
         B     VDINEXT
VDIEND   DS    0H
         BAL   R14,JCLOUT              PUNCH JCL
         EJECT                                              *HMD 04/81*
*
* DEFINE CLUSTER
*
         MODCB RPL=USERRPL,ARG=VDATACI,KEYLEN=4,OPTCD=(GEN,DIR),       X
               AREA=DIBUF
         MVC   DIBUF(4),VDATACI        SET UP RECORD POINTER
         BAL   R14,VSDATIDX+L'VSDATIDX PUNCH REST OF PARAMETERS
         MODCB RPL=USERRPL,ARG=VINDXCI POINT TO INDEX KEY
         MVC   DIBUF(4),VINDXCI        SET UP RECORD POINTER
         BAL   R14,VSDATIDX+L'VSDATIDX   PUNCH REST OF PARAMETERS
         LA    R1,JCLBUF16             LOAD JCL BUFFER POINTER FOR SCAN
         MVC   0(4,R1),=C'CAT('        MOVE TO JCL BUFFER
         BAL   R14,GETSPACE            FIND NEXT BLANK
         MVC   0(L'UCATDSN,R1),UCATDSN MOVE CAT NAME TO JCL BUFFER
         BAL   R14,GETSPACE            FIND NEXT BLANK
         MVI   0(R1),C')'              MOVE TO JCL BUFFER
         CLI   PASSWORD,0              PASSWORD SUPPLIED?   *HMD 04/81*
         BE    NOPASS                                       *HMD 04/81*
         MVI   0(R1),C'/'              INDICATE PASSWORD    *HMD 04/81*
         MVC   1(8,R1),PASSWORD+1      MOVE PASSWORD        *HMD 04/81*
         MVI   9(R1),C')'              CLOSE STATEMENT      *HMD 04/81*
NOPASS   BAL   R14,JCLOUT              PUNCH JCL
         MODCB RPL=USERRPL,ARG=USERBUF,OPTCD=(NSP) POINT TO CLUSTER REC
         GET   RPL=USERRPL             POINT TO CLUSTER RECORD
         MODCB RPL=USERRPL,OPTCD=SEQ,AREA=USERBUF CHANGE TO SEQ PROCESS
         L     R14,VGETDI              LOAD RETURN POINTER
         BR    R14                     RETURN
         EJECT                                              *HMD 04/81*
DIBUF    DS    128F                    DATA/INDEX RECORD BUFFER
         ORG   DIBUF
         DS    XL44
DIENTYPE DS    C                       RECORD TYPE(D=DATA,2=INDEX)
         DS    XL3
DIFLFLL  DS    X                       FIXED LENGTH FIELDS LENTTH
DIENTNAM DS    CL44                    ENTRY NAME
         DS    XL14
DIATTR1  DS    X                       DATA SET ATTRIBUTES
DIATTR2  DS    X                       SHARE OPTIONS
         DS    X                       OPEN INDICATOR
DIBUFSIZ DS    XL4                     BUFFER SPACE
DIPSPAC  DS    XL3                     PRIMARY SPACE
DISSPAC  DS    XL3                     SECONDARY SPZCE
DISPACOP DS    X                       SPAC OPTIONX
         DS    XL8
DILRECL  DS    XL4                     DATA RECORD LENGTH
         ORG
DINOFSET DS    X                       NO OF SETS OF FIELD POINTERS
         EJECT                                              *HMD 04/81*
VSDATIDX DC    F'0'                    RETURN POINTER
         ST    R14,VSDATIDX            STORE RETURN POINTER
         CLC   =F'0',DIBUF             IS THERE A VALID ENTRY ?
         BER   R14                     NO
         GET   RPL=USERRPL             READ INDEX RECORD
         LTR   R15,R15                 GET SUCCESSFUL ?
         BZ    GETOK                   NO
         ABEND 20,DUMP
GETOK    DS    0H
         SR    R2,R2                   CLEAR REGISTER
         IC    R2,DIFLFLL              LOAD FIXED LENGTH FIELD LENGTH
         A     R2,=A(DIBUF)            INCREMENT BY BUFFER ADDRESS
         LA    R2,5(R2)                POINT PAST HORIZ EXT RECORD
         ST    R2,DISETPTR             STORE NO OF FIELDS POINTER
         MVC   DINOFSET,0(R2)          SAVE NO OF FIELD POINTERS
         LA    R2,L'DIFLFLL(R2)        POINT TO FIRST POINTER
         SR    R1,R1                   CLEAR REGISTER
         IC    R1,DINOFSET             INSERT NO OF SET OF FIELDS
         MH    R1,=H'5'                MULTIPLY BY FIELD LENGTH
         AR    R1,R2                   COMPUTE START OF FIRST FIELD
         ST    R1,DISETBEG             STORE START OF 1ST FIELD
DICKSETS DS    0H
         L     R1,DISETPTR             LOAD CURRENT FIELD POINTER
         USING UCATSETS,R1             DECLARE BASE REGISTER
         CLI   DINOFSET,X'0'           ALL SET OF FIELDS PROCESSED ?
         BE    DIEND                   YES
         TM    USETYPE,X'40'           SET DELETED ?
         BO    DINEXT                  YES
         NI    USETYPE,X'3F'           CLEAR UNWANTED BITS (0-1)
         L     R3,DISETBEG             LOAD START OF FIRST SET
         AH    R3,USETDISP             BUMP BY OFFSET
         CLI   USETYPE,X'1'            ACCESS METHOD DATA SET STAT BLK?