         MACRO
&NAME    LEAVE  &EQ,&CC=
         GBLC  &LV,&SP,&SAVED(2)
&NAME    LR    2,13               SAVE CURRENT WORK/SAVE AREA
         L     13,4(13)           PICK UP LAST SAVE AREA
         STM   15,1,16(13)        STORE RETURN REGS
         AIF   ('&LV' EQ '').L1
         FREEMAIN R,LV=&LV,SP=&SP,A=(2)  FREE SAVE AREA
.L1      AIF   ('&SAVED(2)' EQ '').L2
         AIF   ('&CC' EQ '').L15       WAS CC SPECIFIED
         RETURN (&SAVED(1),&SAVED(2)),T,RC=&CC RETURN
         AGO   .L3
.L15     RETURN (&SAVED(1),&SAVED(2)),T        RETURN
         AGO   .L3
.L2      RETURN &SAVED(1),T *   RETURN TO CALLER
.L3      AIF   ('&EQ' NE 'EQ').L4
R0       EQU   0
R1       EQU   1
R2       EQU   2
R3       EQU   3
R4       EQU   4
R5       EQU   5
R6       EQU   6
R7       EQU   7
R8       EQU   8
R9       EQU   9
R10      EQU   10
R11      EQU   11
R12      EQU   12
R13      EQU   13
R14      EQU   14
R15      EQU   15
.L4      MEND
