*        %GOTO PLSRESPL;          /*BILINGUAL HEADER
         MACRO
&NAME    RESPL &DSECT=YES,&EQUATES=NO
         LCLC  &A0010,&A0020,&A0030,&A0040,&A0050
         LCLC  &A0060,&A0070,&A0080,&A0090,&A0095,&A0096       @Y17XAUU
         LCLC  &A0097,&A0098,&A0099                            @Y17XAXU
*
*        TOTE RESIDENT CONTROL BLOCK
*
*        STATUS = VERSION 10.0                                 @Y17XAXU
*
         AIF   ('&DSECT' EQ 'NO').BYP010
&A0010   SETC  '0'
&A0020   SETC  '0'
&A0030   SETC  '0'
&A0040   SETC  '0'
&A0050   SETC  '0'
&A0060   SETC  '0'
&A0070   SETC  '0'
&A0080   SETC  '0'
&A0090   SETC  '0'
&A0095   SETC  '0'                                               S22024
&A0096   SETC  '0'                                             @Y17XAUU
&A0097   SETC  '0'                                             @Y17XAXU
&A0098   SETC  '0'                                             @Y17XAUU
&A0099   SETC  '0'                                             @Y17XAUU
         AGO   .BYP020
.BYP010  ANOP
&A0010   SETC  'ERROR'
&A0020   SETC  'SMGR'
&A0030   SETC  'IEDQWA'
&A0040   SETC  'OLTETXR'
&A0050   SETC  'PRFSTXT-PRFSUNIT'
&A0060   SETC  'QREMFRX'
&A0070   SETC  'QREMELX'
&A0080   SETC  'QADDNDX'
&A0090   SETC  'QADDAFX'
&A0095   SETC  'STAERT'                                          S22024
&A0096   SETC  'HIERSCAN'                                      @XM05672
&A0097   SETC  'POSTWAIT'                                      @Y17XAXU
&A0098   SETC  'ALLOCBUF'                                      @Y17XAXU
&A0099   SETC  'FREEBUF'                                       @Y17XAUU
.BYP020  ANOP
         AIF   ('&DSECT' EQ 'NO').BYP030
&NAME    DSECT
         AGO   .BYP040
.BYP030  ANOP
&NAME    DS    0F
.BYP040  ANOP
RESTECBS DC    A(0)               PARAMETER LIST FOR TOTE WAIT
         DC    XL1'80'            SET ECB CODE TO WAITING
         DC    AL3(RESTECB1)      ADDRESS OF USBTASK ECB
RESTECB1 DC    F'0'               SUBTASK REQUEST ECB
*
RESOBQCB DS    0F                 OLTCB QUEUE CONTROL BLOCK
RESOBFWD DC    A(RESOBQCB)        OLTCB QUEUE FORWARD POINTER
RESOBBKW DC    A(RESOBQCB)        OLTCB QUEUE BACKWARD POINTER
*
RESTTLST DC    A(0)               LAST TOTE TNT ENTRY ADDRESS
RESBKTOT DC    H'12'              TOTAL STORAGE BLOCKS FOR TOTE  S22024
RESBKAVL DC    H'8'               CURRENT FREE STORAGE BLOCKS
RESEFQCB DC    A(RESEFQCB)        EXTENDED AREA FREE QUEUE
*                                   CONTROL BLOCK
RESTNTCT DC    X'00'              TOTAL NUMBER OF TNT ENTRIES
RESDMTTE DC    AL3(0)             POINTER TO TOTE EXTENDED AREA
*                                   FOR TTE'S AND QCB'S
RESETXRA DC    A(&A0040)          END OF TASK EXIT ROUTINE ADDRESS
RESSTAEA DC    A(&A0095)          STAE EXIT ROUTINE ADDRESS      S22024
RESSMGRA DC    A(&A0020)          SERVICE MANAGER ENTRY ADDRESS
RES#TBLE EQU   RESSMGRA-28        BRANCH TABLE ADDRESS
RESWBFNC DC    X'00'              IEDQWB FUNCTION REQUEST CODE
*
RESFLAGS DC    XL1'0'             TOTE RESIDENT FLAG BYTE
*
RESINIT  EQU   X'80'                   TOTE INITIALIZED FLAG
RESFIRST EQU   X'40'                   FIRST-TIME INDICATOR
*
         DC    XL2'0000'          UNUSED                       @XM05672
RESTRMQ  DC    A(RESTRMQ)         TOTE TRM QUEUE CONTROL BLOCK
         DS    XL1'0'             UNUSED
RESTNTPT DS    AL3(0)             ADDRESS OF START OF TOTE TNT
*                                   ENTRIES
*
*           BRANCH TABLE FOR QUEUE HANDLERS
*
RESQHBL  DS    0F                 ALIGN ON FULLWORD
RESREMFR DC    A(&A0060)          ADDRESS OF REMOVE ELEMENT FROM
*                                   FRONT HANDLER
RESREMEL DC    A(&A0070)          ADDRESS OF REMOVE SPECIFIED
*                                   ELEMENT HANDLER
RESADDND DC    A(&A0080)          ADDRESS OF ADD ELEMENT TO END
*                                   HANDLER
RESADDAF DC    A(&A0090)          ADDRESS OF ADD ELEMENT AFTER
*                                   ANOTHER SPECIFIED ELEMENT HANDLER
RESPLRVT DC    A(&A0097)          POST/WAIT ROUTINE            @Y17XAXU
RESABUF  DC    A(&A0098)          BUFFER ALLOCATION ROUTINE    @Y17XAXU
RESFBUF  DC    A(&A0099)          BUFFER DEALLOCATION ROUTINE  @Y17XAXU
RESMHSRC DC    H'0' .             TOTE MH TTCIN                @Y17XAXU
RESMHNAT DC    H'0' .             TOTE MH NETWORK ADDRESS      @Y17XAXU
RESTOTMH DC    A(0) .             TOTE MH ADDRESS              @Y17XAXU
RESPLADR DS    0F .               SERVICE ROUTINE ADDRESSES    @Y17XAXU
RESPLWO  DC    A(0) .             I/O ACCESS MANAGER           @Y17XAXU
RESPLAB  DC    A(0) .             DATE ROUTINE                 @Y17XAXU
RESPLAJ  DC    A(0) .             $CUTEST ROUTINE              @Y17XAXU
RESPL35  DC    A(0) .             EXIO ROUTINE                 @Y17XAXU
RESPLAA  DC    A(0) .             TIME ROUTINE                 @Y17XAXU
RESPL39  DC    A(0) .             DPRINT LOAD 1 ROUTINE        @Y17XAXU
RESPLP1  DC    A(0) .             DPRINT LOAD 2 ROUTINE        @Y17XAXU
RESPLP2  DC    A(0) .             DPRINT LOAD 2 ROUTINE        @Y17XAXU
RESPL37  DC    A(0) .             CECOM ROUTINE                @Y17XAXU
RESPL28  DC    A(0) .             PLINK ROUTINE                @Y17XAXU
RESPL36  DC    A(0) .             WAITIO ROUTINE               @Y17XAXU
RESPLAC  DS    0F .               $GRAB ROUTINE                @Y17XAXU
RESPL21  DS    A(0) .             $LETGO ROUTINE               @Y17XAXU
RESPL41  DC    A(0) .             CONVERT ROUTINE              @Y17XAXU
RESPL16  DC    A(0) .             GETCONFIG ROUTINE            @Y17XAXU
RESPL42  DS    0F .               MORECORE ROUTINE             @Y17XAXU
RESPL43  DC    A(0) .             FREECORE ROUTINE             @Y17XAXU
RESPL44  DC    A(0) .             DIO ROUTINE                  @Y17XAXU
RESPL47  DC    A(0) .             ROUTINE ROUTINE              @Y17XAXU
RESPLM2  DC    A(0) .             TRACE/RETURN CODE ROUTINE    @Y17XAXU
RESPL25  DC    A(0) .             SEND ROUTINE                 @Y17XAXU
RESPL33  DC    A(0) .             RECEIVE ROUTINE              @Y17XAXU
RESTLIB  DC    A(&A0096)          ADDR OF HIERARCHY SCAN RTN   @XM05672
RESPLA1  DC    A(0) .             TOTE INPUT PROCESSOR ADDRESS @Y17XAXU
RESAPDCB DCB   DSORG=PS,MACRF=WC,DDNAME=DIAGMSG,BLKSIZE=80      SA21903
RESAPOPN EQU   RESAPDCB+48                                      SA21903
         MEND                                                @Y17XAXU*/
*%PLSRESPL: ;
*DECLARE
*  1 IEDRESPL BDY(WORD) BASED,    /*                         @Y17XAXU*/
*/*                                                          @Y17XAXU*/
*/*      TOTE RESIDENT CONTROL BLOCK                         @Y17XAXU*/
*/*      STATUS = VERSION 10.0 (TCAM,TOTE)                   @Y17XAXU*/
*/*                                                          @Y17XAXU*/
*   2 RESTECBS PTR(31),           /* PARMLIST FOR TOTE WAIT  @Y17XAXU*/
*   2 * CHAR(1),                  /* ECSB CODE               @Y17XAXU*/
*   2 * PTR(24) BDY(BYTE),        /* SUBTASK ECB ADDRESS     @Y17XAXU*/
*   2 RESTECB1 PTR(31),           /* SUBTASK REQUEST ECB     @Y17XAXU*/
*   2 RESOBQCB BDY(WORD),         /* OLTCB QUEUE CONTROL     @Y17XAXU*/
*                                 /* BLOCK                   @Y17XAXU*/
*    3 RESOBFWD PTR(31),          /* OLTCB QUEUE FORWARD     @Y17XAXU*/
*                                 /* POINTER                 @Y17XAXU*/
*    3 RESOBBKW PTR(31),          /* OLTCB QUEUE BACKWARD    @Y17XAXU*/
*                                 /* POINTER                 @Y17XAXU*/
*   2 RESTTLST PTR(31),           /* LAST TOTE TNT ENTRY     @Y17XAXU*/
*                                 /* ADDRESS                 @Y17XAXU*/
*   2 RESBKTOT FIXED(15),         /* TOTAL STORAGE BLOCKS    @Y17XAXU*/
*                                 /* FOR TOTE                @Y17XAXU*/
*   2 RESBKAVL FIXED(15),         /* CURRENT FREE STORAGE    @Y17XAXU*/
*                                 /* BLOCKS                  @Y17XAXU*/
*   2 RESEFQCB PTR(31),           /* EXTENTED AREA FREE      @Y17XAXU*/
*                                 /* QUEUE CONTROL BLOCK     @Y17XAXU*/
*   2 RESTNTCT PTR(8),            /* TOTAL NUMBER OF TNT     @Y17XAXU*/
*                                 /* ENTRIES                 @Y17XAXU*/
*   2 RESDMTTE PTR(24) BDY(BYTE), /* POINTER TO TOTE         @Y17XAXU*/
*                                 /* EXTENTED AREA FOR TTE'S,@Y17XAXU*/
*                                 /* QCB'S AND LGB'S         @Y17XAXU*/
*   2 RESETXRA PTR(31),           /* END OF TASK EXIT ROUTINE@Y17XAXU*/
*                                 /* ADDRESS                 @Y17XAXU*/
*   2 RESSTAEA PTR(31),           /* STAE EXIT ROUTINE       @Y17XAXU*/
*                                 /* ADDRESS                 @Y17XAXU*/
*   2 RESSMGRA PTR(31),           /* SERVICE MANAGER ENTRY   @Y17XAXU*/
*                                 /* ADDRESS                 @Y17XAXU*/
*   2 RESWBFNC CHAR(1),           /* IEDQWB FUNCTION REQUEST @Y17XAXU*/
*                                 /* CODE                    @Y17XAXU*/
*   2 RESFLAGS BIT(8),            /* TOTE RESIDENT FLAGS     @Y17XAXU*/
*    3 RESINIT BIT(1),            /* TOTE INITIALIZED FLAG   @Y17XAXU*/
*    3 RESFIRST BIT(1),           /* FIRST-TIME INDICATOR    @Y17XAXU*/
*    3 * BIT(6),                  /* RESERVED                @Y17XAXU*/
*   2 * CHAR(2),                  /* RESERVED                @Y17XAXU*/
*   2 RESTRMQ PTR(31),            /* TRM QUEUE CONTROL BLOCK @Y17XAXU*/
*   2 * CHAR(1),                  /* RESERVED                @Y17XAXU*/
*   2 RESTNTPT PTR(24) BDY(BYTE), /* ADDRESS OF START OF     @Y17XAXU*/
*                                 /* TOTE TNT ENTRIES        @Y17XAXU*/
*/*                                                          @Y17XAXU*/
*/*      BRANCH TABLE FOR QUEUE HANDLERS                     @Y17XAXU*/
*/*                                                          @Y17XAXU*/
*   2 RESQHBL BDY(WORD),          /*                         @Y17XAXU*/
*    3 RESREMFR PTR(31),          /* ADDRESS OF REMOVE       @Y17XAXU*/
*                                 /* ELEMENT FROM FRONT      @Y17XAXU*/
*                                 /* HANDLER                 @Y17XAXU*/
*    3 RESREMEL PTR(31),          /* ADDRESS OF REMOVE       @Y17XAXU*/
*                                 /* SPECIFIED ELEMENT       @Y17XAXU*/
*                                 /* HANDLER                 @Y17XAXU*/
*    3 RESADDND PTR(31),          /* ADDRESS OF ADD ELEMENT  @Y17XAXU*/
*                                 /* TO END HANDLER          @Y17XAXU*/
*    3 RESADDAF PTR(31),          /* ADD OF ADD ELEMENT AFTER@Y17XAXU*/
*                                 /* ANOTHER SPECIFIED       @Y17XAXU*/
*                                 /* ELEMENT                 @Y17XAXU*/
*   2 RESPLRVT PTR(31),           /* POST/WAIT ROUTINE       @Y17XAUU*/
*   2 RESABUF PTR(31),            /* BUFFER ALLOCATION RTN   @Y17XAXU*/
*   2 RESFBUF PTR(31),            /* BUFFER DEALLOCATION RTN @Y17XAXU*/
*   2 RESMHSRC FIXED(16),         /* TOTE MH TTCIN           @Y17XAXU*/
*   2 RESMHNAT FIXED(16),         /* TOTE MH NETWORK ADDRESS @Y17XAXU*/
*   2 RESTOTMH PTR(31),           /* TOTE MH ADDRESS         @Y17XAXU*/
*   2 RESPLADR BDY(WORD),         /* SERVICE ROUTINE ADDR    @Y17XAXU*/
*    3 RESPLWO PTR(31),           /* I/O ACCESS MANAGER      @Y17XAXU*/
*    3 RESPLAB PTR(31),           /* DATE ROUTINE            @Y17XAXU*/
*    3 RESPLAJ PTR(31),           /* $CUTEST ROUTINE         @Y17XAXU*/
*    3 RESPL35 PTR(31),           /* EXIO ROUTINE            @Y17XAXU*/
*    3 RESPLAA PTR(31),           /* TIME ROUTINE            @Y17XAXU*/
*    3 RESPL39 PTR(31),           /* DPRINT LOAD 1 ROUTINE   @Y17XAXU*/
*    3 RESPLP1 PTR(31),           /* DPRINT LOAD 2 ROUTINE   @Y17XAXU*/
*    3 RESPLP2 PTR(31),           /* DPRINT LOAD 2 ROUTINE   @Y17XAXU*/
*    3 RESPL37 PTR(31),           /* CECOM ROUTINE           @Y17XAXU*/
*    3 RESPL28 PTR(31),           /* PLINK ROUTINE           @Y17XAXU*/
*    3 RESPL36 PTR(31),           /* WAITIO ROUTINE          @Y17XAXU*/
*    3 RESPLAC PTR(31),           /* $GRAB ROUTINE           @Y17XAXU*/
*     4 RESPL21 PTR(31),          /* $LETGO ROUTINE          @Y17XAXU*/
*    3 RESPL41 PTR(31),           /* CONVERT ROUTINE         @Y17XAXU*/
*    3 RESPL16 PTR(31),           /* GETCONFIG ROUTINE       @Y17XAXU*/
*    3 RESPL42 PTR(31),           /* MORECORE ROUTINE        @Y17XAXU*/
*     4 RESPL43 PTR(31),          /* FREECORE ROUTINE        @Y17XAXU*/
*    3 RESPL44 PTR(31),           /* DIO ROUTINE             @Y17XAXU*/
*    3 RESPL47 PTR(31),           /* ROUTINE ROUTINE         @Y17XAXU*/
*    3 RESPLM2 PTR(31),           /* TRACE/RETURN CODE       @Y17XAXU*/
*                                 /* ROUTINE                 @Y17XAXU*/
*    3 RESPL25 PTR(31),           /* SEND ROUTINE            @Y17XAXU*/
*    3 RESPL33 PTR(31),           /* RECEIVE ROUTINE         @Y17XAXU*/
*   2 RESTLIB PTR(31),            /* ADDRESS OF OLTLIB DCB   @Y17XAXU*/
*   2 RESAPDCB BDY(WORD);         /* START OF AP DCB AREA    @Y17XAXU*/
*                                 /*                         @Y17XAXU*/
*%RESPLEND: ;                     /* END OF RESPL            @Y17XAXU*/
