         MACRO
&NAME    SNDSCH  &GEN=MAXI
.*A-000000-999999                                              @X31X8I0
.*
.******************* MICROFICHE FLAGS *********************** SUPT CODE
.*C341000                                                        X02004
.*A573700                                                        Y01948
.*C556000,567423                                                 Y01948
.*D557000,558000,567432,567441                                   Y01948
.*A388000,573000                                                 S99228
.*A186000,217000,462600,488000                                   S22029
.*C001000-002000                                                 S22029
.*A355600,355700                                                 A42390
.*A400000,420000,426000,439000,446000,457000                     S21101
.*A507000,524000,528000,544000,566000                            S21101
.*C128000,442000,447000,458000,534000-537000                     S21101
.*D549000,606000-608000,614000                                   S21101
.*A114000,124000,403000,427050,427560,508400,535000,550000,      S22025
.*A558000,567126,567459                                          S22025
.*C128000,267000-268000,292000-293000,296000,534000,567000       S22025
.*D221000-225000,417000,427055,427085,427100-427300,427400-427700S22025
.*D439060-439240,439360-439840,505000,514000-515000,566180-566900S22025
.*D567000,567639,567657                                          S22025
.*A340450                                                         M2173
.*A220000                                                       SA56891
.*D177000-178000                                                SA56891
.*A565000,565200                                                SA52971
.*C567297-567324                                                SA52971
.*D545000,565400,567225,567477,567630-567648,569000             SA52971
.*A427020-427040,534000-534840                                  SA56606
.*D427420-427480,427560,427580-427800,534000-534500             SA56606
.*A561000                                                       SA60792
.*C567072,573200-573400                                         SA60792
.*C407500,409080,412000,443500,446000-446320                    SA61773
.*A409800,599800                                                SA58984
.*C015100-016000                                                SA58984
.*A461000,447200,524800                                         SA59034
.*C456000                                                       SA59034
.*D524100-524200                                                SA59034
.*C498000                                                       SA62953
.*A357000,357500                                                SA65412
.*A311050-311950                                                 Y05331
.*A427000,427400                                                OX02199
.*C389100,441600                                                SA65379
.*A389800                                                       SA65379
.*C357800-357900                                                SA68703
*A357500                                                       @ZA02054
*A183000                                                       @SA70324
*A248000,279000,573000                                         @SA71683
*A544600                                                       @SA72478
*D547300                                                       @SA72478
*C339200                                                       @YA08088
*A341660                                                       @YA08088
*C455000-461700                                                @ZA03063
.*A561400                                                       SA69635
.*A015000,017000,020000,024000,026000,065000,066000,101000       X03039
.*A146000,147000,189000,358600,362000,388000,392000,403000       X03039
.*A405600,409020,409080,409800,409930,416000,427020,427040,      X03039
.*A427540,428000,428070,434000,435000,437000,439000,442200,      X03039
.*A446500,469000,480000,483000,488500,492000,493000,507500,      X03039
.*A524800,526000,527000,528000,535500,536000,561000,561800,      X03039
.*A566000,567540,575000,599900,602000,605000,610000,613000       X03039
.*C004000,016500,088000,089000,090000,091000,431000,564000       X03039
.*D565000                                                        X03039
.*A427060,427090,427430,427520,                                  X03039
.*A000002                                                      @Z30X8IG
.*C002841,016500                                               @Z30X8IG
.*A080000,098000,101400,358715,474000,476000,599918            @Z30X8IR
.*A427170                                                      @Z30X8IM
.*A-365100,368300,384000                                       @X50X9IH
.*C-368300                                                     @X50X9IH
.*A358630,358680,358835,439095,439200                          @ZA03122
.*A413000                                                      @XA09773
.*A435100,435300                                               @X50X9II
.*D311280-311440,D312000                                       @YA11169
*D419000                                                       @OS76313
*C467000                                                       @OX11964
*C553000-555000                                                @OZ07113
*C553000-555000                                                @OY12395
*C405400                                                       @XA08073
*A156000,157000,160000,162200,C161600                          @OZ09912
*A256000                                                       @OY12421
*C467000,A469000                                               @OY12969
*A465000,C469200,A613000,A409930                               @OX13500
*A453000                                                       @OX12563
*D339400-339600,D353100-353200,A243000,A341400,C354200         @OS77835
*C341000,A610500                                               @OS77835
*C441600                                                       @OY14503
*D469100-469200                                                @OS77867
*C400000                                                       @OY14092
*C439720,439900                                                @OX17153
*A123000,567540                                                @OZ24185
*C567297                                                       @OZ24185
         SPACE 3
*A124000                                                       @OY19438
*A567288,567297                                                @OY19438
* DUMMY APAR                                                   @OZ27328
.**********************************************************************
         AIF   ('&GEN' EQ 'MAXI' OR '&GEN' EQ 'MINI' OR '&GEN' EQ 'NTSO-
               ' OR '&GEN' EQ 'VTAM').OK                         X03039
         MNOTE 12,'XXX IHB     -INVALID OPERAND.'
         MEXIT
.OK      ANOP
         TITLE '&NAME     SEND SCHEDULER'
&NAME    CSECT
.L1      ANOP
*                                                                     *
***********************************************************************
*                                                                     *
*TITLE --  SEND SCHEDULER MODULE                                      *
*                                                                     *
         AIF   ('&GEN' NE 'VTAM').TAG0                           X03039
*  MODULE NAME = IEDIAQ (VTAM)                                   X03039
         AGO   .TAG3                                             X03039
.TAG0    ANOP                                                    X03039
         AIF   ('&GEN' NE 'MINI').TAG1
*  MODULE NAME = IGG019Q6 (MINI)                                      *
         AGO   .TAG3
.TAG1    AIF   ('&GEN' NE 'NTSO').TAG2
*  MODULE NAME = IGG019Q7 (NTSO)                                      *
         AGO   .TAG3
.TAG2    ANOP
*  MODULE NAME = IGG019R4 (MAXI)                                      *
.TAG3    ANOP
*                                                                     *
*  DESCRIPTIVE NAME = SEND SCHEDULER                                  *
*                                                                     *
*  COPYRIGHT = 'NONE'                                                 *
*                                                                     *
*STATUS -- CHANGE LEVEL 8                                      @Z30X8IG
*                                                                     *
         AIF   ('&GEN' EQ 'VTAM').VFUNC                          X03039
*FUNCTION -- TO SCHEDULE A SENDING OPERATION AND TO FIND THE ADDRESS  *
*   OF THE DESTINATION LCB WHEN A MESSAGE IS POSTED TO A DESTINATION  *
*   QUEUE OR WHEN A DIAL QCB COMES OUT OF A TIME DELAY.               *
         AGO   .ENTPNT                                           X03039
.VFUNC   ANOP                                                    X03039
*FUNCTION -- TO SCHEDULE A SENDING OPERATION AND TO REQUEST A    X03039
*   LOGON IF NEEDED TO PERFORM THE SEND OPERATION.               X03039
.ENTPNT  ANOP                                                    X03039
*                                                                     *
*ENTRY POINTS --                                                      *
*   FIRST EXECUTABLE INSTRUCTION                                      *
*                                                                     *
         AIF   ('&GEN' EQ 'VTAM').VENTPT2                        X03039
*   'LCBSCAN'  WHEN CALLED BY DESTINATION ASSIGNMENT OR BY THE SEND   *
*   SCHEDULER (INITIATE MODE AND FOR A DIAL QCB).                     *
         AGO   .INPUT                                            X03039
.VENTPT2 ANOP                                                    X03039
*   'LCBSCAN' WHEN CALLED BY DESTINATION ASSIGNMENT, THE TIME    X03039
*   DELAY SUBTASK, OR THE SEND SCHEDULER ITSELF.                 X03039
.INPUT   ANOP                                                    X03039
*                                                                     *
*INPUT --                                                             *
*   WHEN ACTIVATED BY THE DISPATCHER -                                *
*   R1 POINTS TO BUFFER, LCB OR QCB                                   *
*   R11  DISPATCHER BASE                                              *
*   R13  ADDRESS OF AVTSAVE2                                          *
*   R15  ENTRY POINT ADDRESS                                          *
*   'LCBSCAN' -                                                       *
*   R7  ADDRESS OF QCB                                                *
*   R13  ADDRESS OF AVTSAVE2                                          *
*   R14  RETURN ADDRESS                                               *
*   R15  ADDRESS OF LCBSCAN                                           *
*                                                                     *
*OUTPUT --                                                            *
*   WHEN ACTIVATED BY THE DISPATCHER                                  *
*   R11  ADDRESS OF DISPATCHER                                        *
*   R13  ADDRESS OF AVTSAVE2                                          *
*                                                                     *
*   'LCBSCAN' -                                                       *
*   R13  ADDRESS OF AVTSAVE2                                          *
*   R14  RETURN ADDRESS                                               *
*                                                                     *
*EXITS-NORMAL --                                                      *
*   WHEN CALLED BY DISPATCHER                                         *
*   R13  ADDRESS OF AVTSAVE2                                          *
*   R11  DISPATCHER BASE                                              *
*   RETURN IS MADE ON R11 WITH AN OFFSET TO HAVE THE DISPATCHER       *
*   PERFORM THE DESIRED FUNCTION.                                     *
*                                                                     *
*   'LCBSCAN'                                                         *
*   R11  DISPATCHER BASE                                              *
*   R13  ADDRESS OF AVTSAVE2                                          *
*   R14  RETURN ADDRESS                                               *
*   BR  R14                                                           *
*                                                                     *
*EXTERNAL ROUTINES --                                                 *
*   'IEDQTNT' - TO CONVERT A TWO BYTE TNT OFFSET TO TERMINAL ENTRY    *
*   ADDRESS                                                           *
*                                                                     *
         AIF   ('&GEN' EQ 'VTAM').VEXTRTN                        X03039
*   'IOHALT' MACRO - TO HALT AN ENABLE OR PREPARE COMMAND IN          *
         AGO   .EXITS                                            X03039
.VEXTRTN ANOP                                                    X03039
*   'IEDQHG01' - TO PUT THE QCB ON THE TIME DELAY QUEUE WHEN     X03039
*   MSGLIMIT IS REACHED ON OUTPUT.                               X03039
*                                                                X03039
*   'IEDIAF2' - TO ISSUE A RESET CONDITIONAL.                    X03039
.EXITS   ANOP                                                    X03039
*                                                                     *
*EXITS-ERROR -- NONE                                                  *
*                                                                     *
*TABLES/WORK AREAS --VARIOUS CONTROL BLOCKS EXPANDED BY MACROS        *
*   TAVTD                                                             *
*   TCCWD                                                             *
*   DCBD                                                              *
*   TDEBD                                                             *
*   TLCBD                                                             *
*   TPRFD                                                             *
*   TQCBD                                                             *
*   TSCBD                                                             *
*   TSTCBD                                                            *
*   TTRMD                                                             *
*   TTSID                                                      @Z30X8IR
*                                                                     *
*ATTRIBUTES -- RE-USABLE, REFRESHABLE, ENABLED, PROBLEM PROGRAM MODE  *
*                                                                     *
*NOTES -- THE OPERATION OF THIS MODULE DOES NOT DEPEND UPON A         *
*   PARTICUALR INTERNAL REPRESENTATION OF THE EXTERNAL CHARACTER      *
*   SET.                                                              *
*                                                                     *
*   ROUTINES CALLING THE LCBSCAN ROUTINE EXPECT THE OFFSET TO    X03039
*   LCBSCAN ALWAYS TO BE THE FIRST TWO BYTES OF THE SEND         X03039
*   SCHEDULER.                                                   X03039
*                                                                     *
***********************************************************************
         EJECT
         DC    AL2(LCBSCAN-&NAME) .     USED BY OPEN TO
*                                         SET ADDRESS IN AVT
*                                 REGISTER EQUATES
         SPACE 1
         AIF   ('&GEN' NE 'VTAM').REG0                         @Z30X8IR
RSELECT  EQU   0                  IEDAYG ENTRY PNT INDEX REG   @Z30X8IR
.REG0    ANOP                                                  @Z30X8IR
R0       EQU   0                  FLAG REG
RTEMP    EQU   1                        WORK REGISTER
RWORK    EQU   2                        WORK REGISTER
         AIF   ('&GEN' NE 'VTAM').EQRSTCB                        X03039
RQCBP    EQU   2                        QCB PREFIX REGISTER      X03039
RSCB     EQU   3                        SCB REGISTER FOR LCBSCAN X03039
RRTN     EQU   3                  RETURN REG FOR IEDAYG        @Z30X8IR
.EQRSTCB ANOP                                                    X03039
RSTCB    EQU   3                  STCB BASE
RLCB     EQU   4                  LCB BASE
R5       EQU   5                        WORK REGISTER
R6       EQU   6                                                    TSO
RQCB     EQU   7                  QCB ADDR
RHOLD    EQU   8                  FIRST LCB SCANNED FOR AVAILABLE
RLAST    EQU   9                  COUNT OF LCB'S TO SCAN
RDCB     EQU   10                 DCB BASE
RSUPBASE EQU   11                 DISPATCHER BASE REG
RBASE    EQU   12                 SUBTASK BASE REG
R13      EQU   13                 SAVE AREA ADDR (AVTSAVE2)
R14      EQU   14                 RETURN ADDR REG
R15      EQU   15                 ENTRY BASE REG
CLEAR0F  EQU   X'0F'                                             S22025
         SPACE 1
         SPACE 2
         USING IEDQSTCB,RSTCB
         USING IEDQLCB,RLCB
         USING IEDQQCB,RQCB
         USING IHADCB,RDCB
         USING IEDQDISP,RSUPBASE
         USING AVTSAVE2,R13
         USING *,R15                    TEMPORARY USING          Y05330
         BAL   RBASE,ID                 BYPASS ID / SET BASE     Y05330
TAG      EQU   *                                               @OY19438
         USING *,RBASE                  SET NEW USING            Y05330
         DROP  R15                                               Y05330
         SPACE 1                                                 Y05330
&NAME    IEDHJN
ID       DS    0H                                                Y05330
         LA    RSTCB,IEDQSTCB     ZERO HI-ORDER BYTE
         LA    RQCB,QCBSTVTO-IEDQQCB GET QCB'S STCB OFFSET
         LCR   RQCB,RQCB          SET NEGATIVE
         AR    RQCB,RSTCB         BACK UP TO QCB BASE
         SPACE 2
*** ANALYZE THE PASSED ELEMENT.  IT MIGHT BE:
*        1. BUFFER (+8 IS A 'TIC' COMMAND CODE)
*             IF END OF MESSAGE, SEARCH FOR AN AVAILABLE LINE ON SHICH
*             TO SEND.
*        2. LCB (+8 IS THE RECEIVE SCHEDULER'S STCBVTO)
*             LOOK FOR THE MESSAGE TO SEND, AND TELL DISK ROUTINES TO
*             START READING MESSAGE.
         AIF   ('&GEN' EQ 'MINI').L5
*        3. QCB (+8 IS THE SEND SCHEDULER'S STCBVTO)
*             SEND TIME DELAY HAS JUST EXPIRED.  LOOK FOR AN AVAILABLE
*             LINE ON WHICH TO CONTACT THE DIAL TERMINAL.
         SPACE 1
         AIF   ('&GEN' EQ 'VTAM').VTAMVTO                        X03039
         CLI   PRFTIC-IEDQPRF(RTEMP),DSPSNDSC IS THIS A QCB?        TSO
         AGO   .QCBBR                                            X03039
.VTAMVTO ANOP                                                    X03039
         CLI   PRFTIC-IEDQPRF(RTEMP),DSPVSSCH IS THIS A QCB      X03039
.QCBBR   ANOP                                                    X03039
         BE    QCBTSO                   BRANCH IF IT IS A QCB       TSO
.L5      ANOP
         CLI   LCBPRI-IEDQLCB(RTEMP),PRILNFRE  LCB
         BE    SENDSCH                  YES
         L     RLCB,PRFLCB-1-IEDQPRF(,RTEMP) LCB ADDRESS
         TM    LCBSTAT1,LCBINITN        INITIATE MODE
         BZ    EXIT                     NO
         LA    R15,LCBSCAN              ADDRESSABILITY
         ST    RQCB,AVTDOUBL            SAVE QCB ADDRES
         AIF   ('&GEN' EQ 'VTAM').STCBTSO
         L     R6,QCBSLINK-1                                   @OZ09912
         LR    R5,RTEMP                 SAVE VALUE             @OZ09912
         AGO   .STCB2                                          @OZ09912
.STCBTSO ANOP                                                  @OZ09912
         ST    RTEMP,AVTDOUBL+4         SAVE BUFFER ADDRESS    @AS09778
.STCB2   ANOP                                                  @OZ09912
         BALR  R14,R15                  LINK TO FIND LCB
         L     RQCB,AVTDOUBL            SET  QCB ADDRES
         AIF   ('&GEN' EQ 'VTAM').STCB3                        @OZ09912
         LR    RTEMP,R5                 RESTORE VALUE          @OZ09912
         LR    RSTCB,R6                 RESTORE VALUE          @OZ09912
         AGO   .STCB4                                          @OZ09912
.STCB3   ANOP                                                  @OZ09912
         L     RTEMP,AVTDOUBL+4         RESTORE BUFFER ADDR    @AS09778
         L     RSTCB,QCBSTCHN-1         1ST STCB ON DEST QCB   @AS09778
         CLI   0(RSTCB),DSPMCPL6        IS IT IEDQHM'S STCB    @AS09778
         BNH   FOUNDHM                  BRANCH IF YES          @OZ09912
         L     RSTCB,QCBSLINK-1         NO, GET HM'S STCB      @AS09778
*                                       FROM STCB LINK FIELD   @AS09778
FOUNDHM  EQU   *                                               @AS09778
.STCB4   ANOP                                                  @OZ09912
         B     DSPBYPAS                 DISPATCH NEXT SSTCB
         AIF   ('&GEN' EQ 'MINI').L7
QCBTSO   LA    R15,LCBSCAN              ESTABLISH ADDRESSABILITY    TSO
         LA    R14,DSPDISP              SET EXIT FROM SUBROUTINE
        AIF   ('&GEN' EQ 'NTSO').L6
         TM    QCBFLAG,QCBTSSES         IS THIS FOR TIME SHARING?   TSO
         BZ    SETEXIT                  BRANCH IF NO
         NI    QCBTSOF2,X'FF'-QCBPOSTO  TURN OFF QCB POSTED BIT     TSO
         B     TSO1                                                 TSO
.L6      ANOP
         SPACE 1
*** A QCB QPOST'ED TO ITSELF IS ASSUMED
         SPACE 1
SETEXIT  EQU   *
         EJECT
.L7      ANOP
         USING *,R15
LCBSCAN  EQU   *
         LA    RQCB,0(,RQCB)            LCRER HI ORDER BYTE FOR COM
         TM    QCBDSFLG,QCBHELD         REUS USING QCB ?       @SA70324
         BOR   R14                      YES, EXIT              @SA70324
         AIF   ('&GEN' EQ 'MINI' OR '&GEN' EQ 'NTSO').L8
         TM    QCBDSFLG,QCBDISK+QCBCORE TIME-SHARING QUEUES?        TSO
         BCR   8,R14                    YES. RETURN TO CPB INIT     TSO
         TM    QCBFLAG,QCBTSSES .      QCB IN TSO SESSION        S22029
         BCR   7,R14 .                 YES RETURN TO CPB INIT    S22029
         SPACE
TSO1     EQU   *                                                    TSO
.L8      ANOP
         AIF   ('&GEN' EQ 'VTAM').VSCAN                          X03039
         L     RDCB,QCBDCBAD-1    GET DCB ADDR
         TM    DCBOFLGS,OPEN      IS DCB OPEN
         BCR   8,R14                    NO EXIT
RETRY    EQU   *
         L     RTEMP,DCBDEBAD     GET DEB ADDR
         USING DEBNMSUB,RTEMP
         TM    DEBOPATB,OUTPUT          OPENED FOR OUTPUT
         BCR   8,R14                    NO, RETURN
         DROP  RTEMP
         SR    RLAST,RLAST        ZERO COUNT REG
         IC    RLAST,X'10'(,RTEMP)      DEB NUMBER OF EXTENTS
         SR    RTEMP,RTEMP        ZERO ODD REG
         IC    RTEMP,QCBRELLN     GET QCB'S STARTING RLN
         LR    RLCB,RTEMP               COPY RLN FOR NEXT TEST
         BCTR  RLCB,R0                  RLN MINUS 1
         SR    RLAST,RLCB               GET COUNT OF LCB'S TO SCAN
         BCR   13,R14                   NO, EXIT
         SR    RWORK,RWORK        ZERO SIZE REG
         IC    RWORK,DCBEIOBX     GET LCB SIZE
         MR    RTEMP-1,RWORK      GET STARTING LCB OFFSET
         AL    RTEMP,DCBIOBAD           POINT TO IOB OF LCB
         SH    RTEMP,LCBSIZE            ADJUST TO START OF LCB
         LR    RLCB,RTEMP               LCB BASE
         AIF   ('&GEN' EQ 'MINI').LNODL
         SR    RHOLD,RHOLD              CLEAR WORK REGISTER
        AIF   ('&GEN' EQ 'NTSO').L9
         TM    QCBDSFLG,QCBDISK+QCBCORE TIME-SHARING QUEUES?        TSO
         BZ    NONDIAL                  YES. TREAT AS IF LEASED     TSO
         TM    QCBFLAG,QCBTSSES .      QCB IN TSO SESSION        S22029
         BO    NONDIAL .               YES TREAT AS LEASED       S22029
.L9      ANOP
         TM    LCBSTAT2,LCBDIAL   ARE THESE DIAL LINES
         BZ    NONDIAL            NO, THIS IS THE LINE
         CLI   QCBSTPRI,CALLOPT         CLOCK OR INTERVAL       SA56891
         BL    DIALLOOP                 BRANCH IF NOT           SA56891
         OI    QCBSTAT,QCBSCHDL         FORCE RECEIVE OPERATION SA56891
*                                         PRIOR TO SENDING      SA56891
DIALLOOP EQU   *
         TM    LCBTSTSW,CONNECT         LCB CONNECTED
         BZ    NOTCONNT                  NOT CONNECTED
         SPACE
         LH    RTEMP,LCBTTCIN           CURRENTLY CONNECTED
         LTR   RTEMP,RTEMP              ORIGIN SPECIFIED
         BZ    TRYNEXT                  NO
         STM   14,15,AVTSAVE3           SAVE REGISTERS
         SPACE
         L     R15,AVTRNMPT             CONVERT ROUTINE
         BALR  R14,R15                  GET TERMINAL CADDRESS
         LM    14,15,AVTSAVE3            SET REGISTERS
         L     RTEMP,TRMDESTQ-1-IEDQTRM(,RTEMP) QCB ADDRESS
         LA    RTEMP,0(,RTEMP)          CLEAR HI ORDER BYTE FOR CR
         CR    RTEMP,RQCB               ARE WE CONNECTED TO THIS
         BNE   TRYNEXT                  NO CONNECTION
         SPACE
         NI    QCBSTAT,AVTEFF-QCBSCHDL  TNT WOURCE SET
         AIF   ('&GEN' EQ 'NTSO').L9A                          @OS77835
         TM    QCBFLAG,QCBNOBRK         CAN TERMINAL BE BROKEN @OS77835
         BO    LEAVE                    NO,EXIT                @OS77835
         TM    LCBTSOB,LCB2741N         2741?                  @OS77835
         BO    NONDIAL                  YES,TREAT AS LEASED    @OS77835
.L9A     ANOP                                                  @OS77835
         B     LEAVE                    EXIT
         SPACE
NOTCONNT EQU   *
         CLI   QCBSTPRI,CALLPRI         CALL=NONE SPECIFIED
         BE    TRYNEXT                  BRANCH YES
         TM    LCBSTCBA+TWO,CLOSEDWN    LINE STOPPED BY        @SA71683
*                                        CLOSEDOWN ?           @SA71683
         BO    TRYNEXT                  BR IF YES              @SA71683
         LTR   RHOLD,RHOLD              PREVIOUS LCB SELECTED
         BNZ   TRYNEXT                  YES,ALREADY HAVE AVAILABEL
         LR    RHOLD,RLCB               SAVE FOUND LCB
TRYNEXT  EQU   *
         AR    RLCB,RWORK               ADDRESS OF NEXT LCB
         BCT   RLAST,DIALLOOP           LOOK AT NEXT LCB
         LTR   RLCB,RHOLD               WAS AVAILABLE LINE FOUND
         BZ    CALLQ                    BRANCH NO
         LA    RTEMP,DSPDISP            GET DISPATCHER EXIT    @OY12421
         CR    RTEMP,R14                WAS THIS A QCB ENTRY   @OY12421
         BE    NOHOLD                   BRANCH-YES DO DIAL UP  @OY12421
         TM    QCBSTAT,QCBTRMHO         IS TERMINAL HELD       @OY12421
         BO    CALLQ                    BRANCH YES             @OY12421
NOHOLD   EQU   *                                               @OY12421
         TS    LCBTSTSW                 LINE STILL AVAILABLE
         BNZ   RETRY                    LOOP AGAIN ON LINE GROUP
         OI    LCBSTAT2,LCBNEGRP        SET NEGATIVE RESPONSE IN
*                                         CASE TERMINAL IS HELD
*                                         IF NOT SET, AN ERRONEOUS
*                                         'CONNECTION' APPEARS TO
*                                         RCV SCHED AND ACTIVATE
         NI    LCBTPCD+11,AVTEFF-DISDLEOT DONT SEND DLE EOTSINCE WE
*                                         ARE NOT DISCONNECTING
*                                         A CALL
         TM    LCBSTAT1,LCBFREEN .      LCB FREE
         BZ    HALTLINE .               BRANCH IF NO TO HIO      S22025
         B     POSTLCB                  GET LCB
         SPACE
CALLQ    EQU   *
         L     RSTCB,DCBIOBAD           1ST IOB
         AR    RSTCB,RWORK              POINT TO 1ST IOB
         SH    RSTCB,DOCQAD             BACK UP TO CALL Q
         B     DSPUNAVR                 USE UNAVAIL AND RETURN
*                                         TO CALLER
         SPACE
NONDIAL  EQU   *
.LNODL   ANOP
         TM    LCBSTCBA+TWO,CLOSEDWN    LINE STOPPED BY        @SA71683
*                                        CLOSEDOWN?            @SA71683
         BOR   R14                      BR IF YES              @SA71683
         CLI   LCBRSPRI,SENDPRI         LINE HAVE SEND PRIORITY
         BH    OBTAIN             NO, GO GET THE LINE
         OI    LCBSTAT2,LCBSNDPR  SET SEND SCHEDULER WANTS LINE
OBTAIN   EQU   *
         AIF   ('&GEN' EQ 'NTSO' OR '&GEN' EQ 'MINI').L10
         TM    QCBFLAG,QCBTSSES         IS THIS TIME SHARING?       TSO
         BZ    TSO2                     BRANCH ON NO                TSO
         L     R6,AVTTSOPT              ADDRESS OF TSINPUT QCB      TSO
         L     R6,TSISCHED-IEDQTSI(,R6) ADDRESS OF TS SCHEDULER     TSO
         BAL   RSTCB,8(,R6)             BRANCH TO ROUTINE           TSO
TSO2     EQU   *                                                    TSO
.L10     ANOP
         TM    LCBSTAT1,LCBFREEN .      IS LINE FREE             S22025
         BZ    TESTPOLL .               NO, GO LOOK FOR NON-REGULS22025
*                                       AR INTERUPTING TERMINALS S22025
*                                      INTERRUPTING TERMINALS
POSTLCB  EQU   *
         XI    LCBSTAT1,LCBSENDN+LCBFREEN . CHANGE LCB STATE TO  S22025
*                                         A MULTIPE POST OF LCB
         MVI   LCBPRI,PRILNFRE          POST PRIORITY
         ST    14,AVTSAVE3+4            SAVE REGISTER
         ST    RQCB,AVTSAVE3            SAVE REGISTER
         ST    RLCB,LCBQCBA-1           LCB IS QCB
         LR    1,RLCB                   PARAMETER FOR POST
         BAL   R14,DSPPOSTR             PUT LCB ON READY Q