         MACRO
&NAME    ERETURN &RC=
.* RETURN TO SYSTEM WITH RETURN CODE
&NAME    L     13,4(0,13)          RESET TO CALLERS SAVE AREA
         RETURN (14,12),RC=&RC
         MEND
