         MACRO
&NAME    TCALL &A,&P1,&P2
.*********************************************************************
.*
.*    TCALL - INTERNAL MACRO USED BY MAP3270
.*           CALLS THE CRT IO ROUTINE
.*
.* - - - - - - - - - - - - - - - - - - - - - - - - - - - - - - - - -
.*
.*  (C) COPYRIGHT 2009  CEDAR LAKE EMPORIUM LLC   ALL RIGHTS RESERVED
.*
.*  THIS SOURCE CODE AS WELL AS ANY OBJECT CODE RESULTING FROM THIS
.*  SOURCE CODE MAY BE DISTRIBUTED FREELY PROVIDED NO FEE IS CHARGED
.*  AND FOR NON-COMERCIAL PURPOSES.
.*
.*  FOR COMMERCIAL DISTRIBUTION RIGHTS, CONTACT THE COPYRIGHT OWNER.
.*
.*********************************************************************
&NAME    CNOP  0,4
         BAL   R1,TCAL&SYSNDX          SET UP THE PARMS
         DC    A(&P1)
         DC    AL1(X'80')
         DC    AL3(&P2)
TCAL&SYSNDX L  R15,&A                  CRT IO IS PRELOADED, PUT ADDR
         BALR  R14,R15                    IN R15 AND CALL
         MEND
