         MACRO
&NAME    TINPMAP &ROW,&COL,&LN
.*********************************************************************
.*
.*   TINPMAP - MAP INCOMING FIELDS TO PANEL.
.*
.* - - - - - - - - - - - - - - - - - - - - - - - - - - - - - - - - -
.*
.*  (C) COPYRIGHT 2009  CEDAR LAKE EMPORIUM LLC   ALL RIGHTS RESERVED
.*
.*  THIS SOURCE CODE AS WELL AS ANY OBJECT CODE RESULTING FROM THIS
.*  SOURCE CODE MAY BE DISTRIBUTED FREELY PROVIDED NO FEE IS CHARGED
.*  AND FOR NON-COMERCIAL PURPOSES.
.*
.*  FOR COMMERCIAL DISTRIBUTION RIGHTS, CONTACT THE COPYRIGHT OWNER.
.*
.*********************************************************************
         AIF   (T'&ROW EQ 'O').ERR1
         AIF   (T'&COL EQ 'O').ERR1
         LCLA  &R,&C
&R       SETA  &ROW
&C       SETA  &COL
         AIF   (&R LT 1 OR &R GT 24).ERR2
         AIF   (&C LT 1 OR &C GT 80).ERR3
&C       SETA  &C+1
         CNOP  0,4
         TSBA ROW=&R,COL=&C
         DC   AL2(&LN)
         DC   AL4(&NAME)
         MEXIT
.ERR1    MNOTE 12,'**** ROW AND COLUMN MUST BE GIVEN FOR SBA ****'
         MEXIT
.ERR2    MNOTE 12,'**** INVALID ROW FOR SBA ****'
         MEXIT
.ERR3    MNOTE 12,'**** INVALID COL FOR SBA ****'
         MEXIT
         MEND
