         MACRO
&NAME    TINPST
.*********************************************************************
.*
.*   TINPST - START THE DEFINITION OF A 3270 PANEL FIELD MAPPING
.*
.* - - - - - - - - - - - - - - - - - - - - - - - - - - - - - - - - -
.*
.*  (C) COPYRIGHT 2009  CEDAR LAKE EMPORIUM LLC   ALL RIGHTS RESERVED
.*
.*  THIS SOURCE CODE AS WELL AS ANY OBJECT CODE RESULTING FROM THIS
.*  SOURCE CODE MAY BE DISTRIBUTED FREELY PROVIDED NO FEE IS CHARGED
.*  AND FOR NON-COMERCIAL PURPOSES.
.*
.*  FOR COMMERCIAL DISTRIBUTION RIGHTS, CONTACT THE COPYRIGHT OWNER.
.*
.*********************************************************************
         GBLC &MNAM
&MNAM    SETC '&NAME'
&NAME    DS   0F
         MEND
