         MACRO
&NAME    TSECT
.*********************************************************************
.*
.*    TSECT - MACRO USED BY MAP3270 TO ALLOW THE IFOX ASSEMBLER
.*            SYSPARM BE PASSED TO THE PRINT.
.*
.*    NOTE - IF YOUR ASSEMBLER DOES NOT SUPPORT SYSPARM, SIMPLY
.*           COMMENT OUT THE AIF AND THE PRINT LINES
.*
.* - - - - - - - - - - - - - - - - - - - - - - - - - - - - - - - - -
.*
.*  (C) COPYRIGHT 2010  CEDAR LAKE EMPORIUM LLC   ALL RIGHTS RESERVED
.*
.*  THIS SOURCE CODE AS WELL AS ANY OBJECT CODE RESULTING FROM THIS
.*  SOURCE CODE MAY BE DISTRIBUTED FREELY PROVIDED NO FEE IS CHARGED
.*  AND FOR NON-COMERCIAL PURPOSES.
.*
.*  FOR COMMERCIAL DISTRIBUTION RIGHTS, CONTACT THE COPYRIGHT OWNER.
.*
.*         REVISED     DESCRIPTION
.*         ----------  -----------------------------------------------
.*  1.0.0  01/06/2011  INITIAL RELEASE
.*
.*********************************************************************
&NAME    CSECT
         AIF  ('&SYSPARM' EQ '').NOSYS      COMMENT ME IF NO SYSPARM
         PRINT &SYSPARM                     COMMENT ME IF NO SYSPARM
.NOSYS   ANOP
         MEND
