         MACRO
&NAME    TSTPAN &OSVER=B
.*********************************************************************
.*
.*   TSTPAN - START THE DEFINITION OF A 3270 PANEL.  GLOBAL OPTIONS
.*   ARE SPECIFIED HERE AS WELL.
.*   CURRENT GLOBAL OPTIONS:
.*      &ZOSVER  THIS CONTAINS THE VERSION MVS THE MAP SHOULD BE
.*               GENERATED FOR.  SOME VERSIONS OF MVS DO NOT SUPPORT
.*               THE EXTENDED ATTRIBUTES CORRECTLY.
.*               THIS VALUE IS CODED
.*               A = STANDARD VERSION PER 3270 MANUALS.
.*               B = MVS 3.8J EXTENDED ATTRIBUTES ARE NOT SUPPORTED
.*                   PER 3270 MANUALS.
.*
.* - - - - - - - - - - - - - - - - - - - - - - - - - - - - - - - - -
.*
.*  (C) COPYRIGHT 2010  CEDAR LAKE EMPORIUM LLC   ALL RIGHTS RESERVED
.*
.*  THIS SOURCE CODE AS WELL AS ANY OBJECT CODE RESULTING FROM THIS
.*  SOURCE CODE MAY BE DISTRIBUTED FREELY PROVIDED NO FEE IS CHARGED
.*  AND FOR NON-COMERCIAL PURPOSES.
.*
.*  FOR COMMERCIAL DISTRIBUTION RIGHTS, CONTACT THE COPYRIGHT OWNER.
.*
.*         REVISED     DESCRIPTION
.*         ----------  -----------------------------------------------
.*  1.0.0              INITIAL RELEASE
.*  1.1.0  01/06/2011  ADDED SUPPORT FOR COLOR EXTENDED ATTRIBUTES.
.*
.*********************************************************************
         GBLC &ZLEN
         GBLC &ZADR
         GBLC &ZNAM
         GBLC &ZOSVER
         AIF   (T'&OSVER NE 'O').VERFND
         MNOTE 12,'**** OSVER MUST BE SPECIFIED ****'
         MEXIT
.VERFND  ANOP
         AIF   ('&OSVER' NE 'A').VNOTA
&ZOSVER  SETC  'A'
         MNOTE 0,'**** GENERATING STANDARD 3270 EXTENDED ATTRS ****'
         AGO   .VDONE
.VNOTA   ANOP
         AIF   ('&OSVER' NE 'B').VNOTB
         MNOTE 0,'**** GENERATING MVS 3.8J 3270 EXTENDED ATTRS ****'
&ZOSVER  SETC  'B'
         AGO   .VDONE
.VNOTB   ANOP
         MNOTE 12,'*** INVALID VALUE FOR OSVER ***'
         MEXIT
.VDONE   ANOP
&ZLEN    SETC '0'
&ZADR    SETC '0'
&ZNAM    SETC '&NAME'
&NAME.P  DC   AL2(&ZNAM.L)
         MEND
