./ ADD  NAME=$CL1L00
         MACRO
&NAME    $CL1L00 &DSECT=NO
.*-------------------------------------------------------------------*
.*       GENERATE THE CL1 LOADER CSECT                               *
.*-------------------------------------------------------------------*
.*
         AIF   ('&DSECT' EQ 'NO').CSECT
&NAME    DSECT
         AGO   .A010
.CSECT   ANOP
CLIST    CSECT
         WXTRN CL1L00
.A010    STM   14,2,12(13)         SAVE REGS
         LR    2,15                SET BASE
         USING CLIST,2
*
         ICM   15,15,LOADER        PICK UP 'LOADER' ADDRESS
         BNZ   CL0010              BRANCH IF RESOLVED
         LOAD  EP=CL1L00           LOAD THE 'LOADER'
         LR    15,0                SET LOADER EP
CL0010   LA    0,VCONS             ADDRESS THE VCONS
         L     14,12(,13)          RESTORE RETURN ADDRESS
         LM    1,2,24(13)          RESTORE REGS
         BR    15                  BRANCH TO THE LOADER
*
LOADER   DC    A(CL1L00)
VCONS    DC    A(PCL)
         DC    A(PROCBLOK)
         EJECT
         MEND
./ ADD  NAME=$IKJLPCS
         MACRO
         $IKJLPCS
$LIST    IKJKEYWD
         IKJNAME '$LIST'
$PROMPT  IKJKEYWD
         IKJNAME '$PROMPT'
$CONLIST IKJKEYWD
         IKJNAME '$CONLIST'
$SYMLIST IKJKEYWD
         IKJNAME '$SYMLIST'
$VERSION IKJKEYWD
         IKJNAME '$VERSION'
         MEND
./ ADD  NAME=ARCHIV
** TITLE   INTERFACE ZU TMS
** OWNER   128.FRANZ
** LCHNG   07/25/83 09:27:27   Z227128 FRANZ
         MACRO
&NAME    ARCHIV &OP,&ADDR,&CCHH,&SVC
.*
.**********************************************************************
.*                                                                    *
.*       5788-DHL COPYRIGHT IBM DEUTSCHLAND GMBH 1978                 *
.*      (SIEHE IBM COPYRIGHT-RICHTLINIEN FORM 30 617-4)               *
.*                                                                    *
.**********************************************************************
.*
.*       STAND VOM 25.07.1983
.*       LAST MODIFICATION BY H. FRANZ
.*
         AIF   ('&OP' EQ 'READ').READ
         AIF   ('&OP' EQ 'WRITE').WRITE
         AIF   ('&OP' EQ 'SMF').SMF
         AIF   ('&OP' EQ 'EVENT').EVENT
         AIF   ('&OP' EQ 'STATM').STATM
         AIF   ('&OP' EQ 'STATC').STATC
         AIF   ('&OP' EQ 'CHECK').CHECK
         AIF   ('&OP' EQ 'UPDATE').UPDATE
         AIF   ('&OP' EQ 'ENQ').ENQ
         AIF   ('&OP' EQ 'DEQ').DEQ
         AIF   ('&OP' EQ 'OPVSAM').OPVSAM
         AIF   ('&OP' EQ 'OPEN').OPEN
         AIF   ('&OP' EQ 'SAVE').SAVE
         AIF   ('&OP' EQ 'CLOSE').CLOSE
         AIF   ('&OP' EQ 'LOCATE').LOCATE
         AIF   ('&OP' EQ 'UNAVAIL').UNAVAIL
         AIF   ('&OP' EQ 'SVC').SVC
         AIF   ('&OP' EQ 'LIST').LIST
         MNOTE 8,'INVALID FUNCTION PARAMETER'
         MEXIT
.READ    ANOP
&NAME    SR    0,0                INDICATE READ
         AGO   .RW
.SMF     ANOP
&NAME    LA    0,1                INDICATE WRITE SMF
         AGO   .RW
.EVENT   ANOP
&NAME    SR    1,1                CLEAR PARAMETER REGISTER
         LA    0,2                INDICATE EVENT REQUEST
         AGO   .RW1
.STATM   ANOP
&NAME    SR    1,1                CLEAR PARAMETER REGISTER
         LA    0,3                INDICATE STATUS MODIFY REQUEST
         AGO   .RW1
.STATC   ANOP
&NAME    SR    1,1                CLEAR PARAMETER REGISTER
         LA    0,4                INDICATE STATUS CLEAR REQUEST
         AGO   .RW1
.WRITE   ANOP
&NAME    LA    0,1                INDICATE WRITE
         SLL   0,31
.RW      LA    1,&ADDR            GET RECORD AREA
.RW1     LA    15,1               GET INDICATOR
         SLL   15,24              - FOR SVC 251-1
         OR    1,15               INDICATE SVC 251-1
         AGO   .SVC251
.CHECK   AIF   (T'&CCHH EQ 'O').NOUCB
&NAME    LA    0,&CCHH            GET UCB ADDRESS
         LA    1,1                INDICATE
         SLL   1,31               - CHECK FOR FREE VOLUME
         OR    0,1                GET INDICATOR
         AGO   .CHIND
.NOUCB   ANOP
&NAME    LA    0,1                INDICATE
         SLL   0,31               - CHECK FOR FREE VOLUME
.CHIND   LA    15,2               GET INDICATOR
         SLL   15,24              - FOR SVC 251-2
         LA    1,&ADDR            GET ADDRESS OF VOLSER
         OR    1,15               INDICATE SVC 251-2
         AGO   .SVC251
.UPDATE  ANOP
&NAME    LA    0,&ADDR             GET ADDRESS OF O/C/E WORKAREA
         LA    15,2                GET INDICATOR
         SLL   15,24               - FOR SVC 251-2
         LA    1,&CCHH             GET UCB ADDRESS
         OR    1,15                INDICATE SVC 251-2
         AGO   .SVC251
.OPVSAM  ANOP
&NAME    LA    15,4                GET INDICATOR
         SLL   15,24               - FOR OPEN AUTHORIZED DATASET
         LA    1,&ADDR             GET ACB/DCB ADDRESS
         OR    1,15                INDICATE SVC 251-4
         AGO   .SVC251
.ENQ     ANOP
&NAME    LA    0,1                 INDICATE ENQ/RESERVE
         AGO   .ENQDEQ
.DEQ     ANOP
&NAME    LA    0,2                 INDICATE DEQ
.ENQDEQ  LNR   0,0                 SET INDICATOR NEGATIVE
         LA    15,8                GET INDICATOR
         SLL   15,24               - FOR SVC 251-8
         LA    1,&ADDR             GET ENQ/DEQ LIST
         OR    1,15                INDICATE SVC 251-8
         AGO   .SVC251
.SAVE    ANOP
&NAME    DS    0H
* ON THIS POINT REG1 MUST CONTAIN ARCHIV'S UCB ADDRESS
* AND REG0 ITS STARTING CYLINDER IN BINARY.
         AGO   .SVC252
.CLOSE   ANOP
&NAME    LA    1,1                INDICATE
         SLL   1,31               - CLOSE SYS1.ARCHIV
         AGO   .SVC252
.LOCATE  ANOP
&NAME    SR    1,1                INDICATE LOCATE
         AGO   .SVC252
.UNAVAIL ANOP
&NAME    LA    1,1                INDICATE
         LNR   1,1                - SYS1.ARCHIV UNAVAILABLE
.SVC252  CNOP  0,4                ENSURE FULLWORD BOUNDARY
         B     *+8                BRANCH AROUND VCON
         DC    V(ARCHSVC)         EXTERNAL REFERENCE
         AIF   ('&SVC' EQ 'SVC').SVC252S
         L     15,*-4             PICK UP START OF ARCHSVC
         EX    0,2(15)            EXECUTE SVC 252
         MEXIT
.SVC252S EX    0,ARCHSVC+2        EXECUTE SVC 252
         MEXIT
.OPEN    ANOP
&NAME    LA    1,3                INDICATE
         SLL   1,24               - SVC 251-3
.SVC251  CNOP  0,4                ENSURE FULLWORD BOUNDARY
         B     *+8                BRANCH AROUND VCON
         DC    V(ARCHSVC)         EXTERNAL REFERENCE
         AIF   ('&SVC' EQ 'SVC').SVC251S
         L     15,*-4             PICK UP START OF ARCHSVC
         EX    0,0(15)            EXECUTE SVC 251
         MEXIT
.SVC251S EX    0,ARCHSVC          EXECUTE SVC 251
         MEXIT
.SVC     ANOP
ARCHSVC  CSECT
         SVC   &ADDR              TYPE 4 SVC (251)
         SVC   &CCHH              TYPE 1 SVC (252)
         MEXIT
.LIST    ANOP
         AIF   ('&ADDR' NE 'SMF').ALIST
* SMF RECORD PREFIX RECORD TYPE 220 AND 221
         CNOP  2,4 .                   TO GET FULLWORD BOUNDARY
&NAME    DS    0H .                    START OF SMF RECORD
SLEN     DS    H .                     LENGTH
SSPAN    DS    H .                     SPAN INFO RESERVED
SSYS     DS    X .                     SYSTEM INDICATOR
STYPE    DS    X .                     RECORD TYPE
         AIF   ('&CCHH' NE 'OLD').ARCHR
SEVENT   DS    0F
.ARCHR   ANOP
STDAY    DS    F .                     TIME OF DAY
SDATE    DS    F .                     DAY
SID      DS    H .                     SYSTEM ID
SMOD     DS    H .                     MODEL NUMBER
SJNAME   DS    CL8 .                   JOBNAME
STSTAMP  DS    F .                     JOB TIME STAMP
SDSTAMP  DS    F .                     JOB DATE STAMP
SJID     DS    CL8 .                   JOB ID
         AIF   ('&CCHH' EQ 'OLD').NOSMF
SEVENT   DS    F .                     EVENT COUNT
         AGO   .NOSMF
.ALIST   ANOP
&NAME    DS    0F .                    ENSURE FULLWORD BOUNDARY
.NOSMF   ANOP
* ARCHIV RECORD
ARCVOL   DS    CL06 .                  VOLUME-SERIAL-NUMBER
* RECORD TYPE D, DATA RECORD
ARCDSN   DS    CL44 .                  DATA-SET-NAME
ARCSTAT  DS    XL01 .                  STATUS
ARCFSEQ  DS    XL01 .                  FILE-SEQUENCE-NUMBER
ARCVSEQ  DS    XL02 .                  VOLUME-SEQUENCE-NUMBER
ARCCRDT  DS    XL03 .                  CREATION-DATE
ARCXPDT  DS    XL03 .                  EXPIRATION-DATE
ARCUSED  DS    XL02 .                  USE-COUNT
ARCAUFTR DS    CL08 .                  AUFTRAGSNUMMER
ARCKST   DS    CL04 .                  KOSTENSTELLE
ARCAGG   DS    CL03 .                  ARBEITSGANG
ARCORT   DS    0XL02 .                 STORE-ROOM
ARCORT1  DS    XL01 .                             NORMAL
ARCORT2  DS    XL01 .                             SAFETY
ARCSW    DS    XL01 .                  SWITCH
ANSI     EQU   B'10000000' .           TRANSFER TO SAFETY
AUSI     EQU   B'01000000' .           TRANSFER FROM SAVETY
INSI     EQU   B'00100000' .           IN SAVETY
INFR     EQU   B'00010000' .           FREELIST SWITCH
DEFSTA   EQU   B'00001000' .           DEFERRED STATUS CHANGE
*        EQU   B'00000100' .           RESERVED
*        EQU   B'00000010' .           RESERVED
FRDR     EQU   B'00000001' .           FREE VOLUME
ARCUSFLD DS    XL01 .                  USERFIELD
* RECORD TYPE I, INDEX RECORD
         ORG   ARCDSN
ARCIVOL1 DS    CL6 .                   HIGHEST VOLSER TRACK 1
ARCICCT1 DS    XL4 .                   CCHH TRACK 1
         DS    6XL10 .                 VOLSER AND CCHH TRACK 2-7
         DS    XL5 .                   RESERVED
* RECORD TYPE H, HEADER RECORD
         ORG   ARCDSN
ARCDAT   DS    CL16 .                  DATE AND TIME DD.MM.YYHH.MM.SS
         DS    X .                     RESERVED
ARCPGM   DS    CL8 .                   PROGRAM NAME
         DS    X .                     RESERVED
ARCCAP   DS    F .                     CAPACITY OF ARCHIV
ARCEVENT DS    F .                     EVENT COUNT
ARCOUNT  DS    H .                     VOLUMES IN ARCHIV
         DS    H       RESERVED                              BASF
ARCSTCNT DS    H       COUNT OF ONLINE STATUS MODIFICATIONS  BASF
         ORG
ARCSA    DS    CL01 .                  RECORD IDENTIFIER I=INDEX-REC.
*                                                        D=DATA-RECORD
*                                                        H=HEADER-REC.
ARCJOBNM DS    CL8            NAME OF CREATING JOB
ARCSTEPN DS    CL8            NAME OF CREATING STEP OR PROC
ARCUNIT  DS    CL3            UNIT ADDRESS ON WHICH TAPE IS CREATED
ARCFLAG  DS    CL1            FLAG TO INDICATE DEFECTIVE TAPE
ARCCRTIM DS    CL8            CREATION TIME AND DATE OF TAPE
ARCLRU   DS    CL4            DATE LAST USED
ARCSIO   DS    CL2            START I/O'S
ARCBLK   DS    CL2            BLOCKSIZE
ARCMOUNT DS    CL2            NO. OF MOUNTS
ARCEND   EQU   *
ARCDLEN  EQU   *-ARCDSN .              LENGTH OF ARCHIV-RECORD
ARCTLEN  EQU   *-ARCVOL .              TOTAL LENGTH OF ARCHIV-RECORD
ARCBLKSI EQU   ARCTLEN*25     BLOCKSIZE OF SEQUENTIELL ARCHIV DATA
*
ARCFAC   EQU   7                       BLOCKING FACTOR
         AIF   ('&ADDR' EQ 'SMF').ACAT
         MEXIT
.ACAT    ANOP
         ORG   ARCVOL
* CAMLIST PARAMETERS
SCAML    DS    H .                     LENGTH OF CATALOG LIST
SCAMFL   DS    XL4 .                   CAMLIST FLAGS
SDSN     DS    CL44 .                  DATASET NAME
SCVOLTYP DS    XL4 .                   CONTROL VOLUME TYPE
SCVOL    DS    CL6 .                   CONTROL VOLUME SERIAL
SCDSCBTT DS    XL3 .                   DSCBTTR
SCVAR    DS    0H .                    VARIABLE PART
SCALIAS  DS    CL8 .                   ALIAS NAME FOR BLDA
         ORG   SCVAR
SCLNKX   DS    XL10 .                  VOL ID FOR LNKX
         ORG   SCVAR
SVOLCNT  DS    H .                     VOLUME COUNT
SVOL     DS    0X .                    VARIABLE VOLUME LIST
         ORG
         MEND
./ ADD  NAME=BACK
         MACRO
&NAME    BACK  &RC
         GBLA  &GBASISA
         GBLC  &NAM(20)
         LCLA  &A
         LCLB  &I,&J,&K,&L
         LCLC  &V
         ACTR  100
.* TEST IF SAVEAREA GIVEN
&A       SETA  1
         AIF   (&GBASISA EQ 0).BACK1
         AIF   (&GBASISA LE 20).BACK2
.BACK1   MNOTE 0,'NO CORRESPONDING BASIS FOUND'
&J       SETB  1
         AGO   .BACK3
.BACK2   AIF   ('&NAM(&A)' EQ '&SYSECT').BACK3
         AIF   (&A EQ &GBASISA).BACK1
&A       SETA  &A+1
         AGO   .BACK2
.* TEST IF &RC IS GIVEN
.BACK3   AIF   (N'&SYSLIST EQ 0).BACK6
         AIF   ('&RC' EQ '').BACK6
.BACK4   AIF   ('&RC' EQ '(15)').BACK7
         AIF   (T'&RC EQ 'N').BACK5
         MNOTE 0,'PARAMETER NO SELF DEFINING TERM -IGNORED-'
         AGO   .BACK6
.BACK5   AIF   (&RC LE 4095).BACK8
         MNOTE 0,'''&RC'' IS GREATER THAN 4095 -SET TO 0-'
.BACK6   ANOP
&K       SETB  1
         AGO   .BACK9
.BACK7   ANOP
&I       SETB  1
.BACK8   ANOP
&L       SETB  1
.* TEST IF MORE THAN ONE PARAMETER
.BACK9   AIF   (N'&SYSLIST LE 1).BACK10
         MNOTE 0,'MORE THAN ONE PARAMETER -REST IGNORED-'
.BACK10  AIF   (&J).BACK11
&V       SETC  'C'.'&A'.'W'
.BACK11  ANOP
*
* RETURN TO CALLING SECTION
*
         AIF   (&J).BACK12
&NAME    LA    13,&V                   GET EADRESS OF OWN SAVEAREA
         L     13,4(13)          GET ADRESS OF CALLING SAVEAREA
         AGO   .BACK13
.BACK12  ANOP
&NAME    L     13,4(13)          GET ADRESS OF CALLING SAVEAREA
.BACK13  ANOP
         XC    8(4,13),8(13)     RESET POINTER TO OWN SAVEAREA
         L     14,12(13)         LOAD REGISTER 14 WITH RETURN ADRESS
         AIF   (&I).BACK15
         AIF   (&L).BACK14
         SR    15,15
         AGO   .BACK15
.BACK14  ANOP
         LA    15,&RC            LOAD RETURN CODE TO REGISTER 15
.BACK15  ANOP
         LM    0,12,20(13)       RESTORE REGISTERS FROM CALLING SAVEA
         BR    14                RETURN TO CALLING SECTION
         SPACE 3
         MEND
./ ADD  NAME=BASIS
         MACRO
&NAME    BASIS &BR,&ID,&APL,&MORE
         GBLA  &GBASISA
         GBLC  &NAM(20)
         LCLA  &A,&B,&C,&D,&E,&F,&G,&H,&AA,&CC
         LCLB  &J,&K,&L,&N,&M,&O
         LCLC  &S,&T,&U,&V
         ACTR  100
&O       SETB  0
.* TEST SECTION IDENTIFIER
         AIF   ('&ID' EQ '').THREE
&A       SETA  K'&ID
&B       SETA  0
         AIF   ('&ID'(1,1) NE '''').QUOT3
.QUOT1   ANOP
         AIF   ('&ID'(&A,1) EQ '''').QUOT2
         MNOTE 0,'SECOND QUOTE MISSING'
&A       SETA  K'&ID-1
         AGO   .QUOT3
.QUOT2   ANOP
&A       SETA  K'&ID-2
.QUOT3   ANOP
         AIF   ('&ID' EQ '*').THREE
*
*  SECTION IDENTIFIER                  MACRO DRZ HH (OS) *VERS.2* 8.70
*
&CC      SETA  ((&A+2)/2)*2+4
&NAME    B     &CC.(0,15)              BRANCH AROUND IDENTIFIER
         DC    AL1(&A)                 LENGTH OF IDENTIFIER
         AIF   ('&ID'(1,1) NE '''').QUOT4
&B       SETA  &B+1
.QUOT4   ANOP
.ONE     AIF   (&A GT 8).TWO
         AIF   (&A EQ 0).NINE
&S       SETC  '&ID'(&B+1,&A)          IDENTIFIER
         DC    CL&A'&S'
         AGO   .NINE
.TWO     ANOP
&S       SETC  '&ID'(&B+1,8)           IDENTIFIER
         DC    CL8'&S'
&B       SETA  &B+8
&A       SETA  &A-8
         AGO   .ONE
.THREE   AIF   ('&NAME' EQ '').SEVEN
&S       SETC  '&NAME'
.FOUR    ANOP
&A       SETA  1
.FIVE    AIF   ('&S'(1,&A) EQ '&S').SIX
&A       SETA  &A+1
         AGO   .FIVE
.SIX     ANOP
*
*  SECTION IDENTIFIER                  MACRO DRZ HH (OS) *VERS.2* 8.70
*
&CC      SETA  ((&A+2)/2)*2+4
&NAME    B     &CC.(0,15)              BRANCH AROUND IDENTIFIER
         DC    AL1(&A)                 LENGTH OF IDENTIFIER
         DC    CL&A'&S'                IDENTIFIER
         AGO   .NINE
.SEVEN   AIF   ('&SYSECT' EQ '').EIGHT
&S       SETC  '&SYSECT'
         AGO   .FOUR
.EIGHT   ANOP
&N       SETB  1
&S       SETC  'NO*NAME'
         AGO   .FOUR
.NINE    DC    0H'0'
         AIF   (NOT &N).TEN
         MNOTE 0,'NO IDENTIFIER GIVEN -SET TO ''NO*NAME''-'
&N       SETB  0
.TEN     AIF   (&GBASISA GE 1).BASIS00
&GBASISA SETA  1
.BASIS00 ANOP
&S       SETC  '11'
&A       SETA  N'&BR
         AIF   (&A LE 4).BASIS01
&N       SETB  1
.* TEST SECTION INITIATION
&A       SETA  4
.BASIS01 AIF   (&A NE 0).BASIS02
&E       SETA  12
         AGO   .BASIS08
.BASIS02 ANOP
&C       SETA  &A
.BASIS03 ANOP
         AIF   (T'&BR(&C) NE 'O').BASI03A
         MNOTE 255,'INVALID REGISTER NOTATION -MACRO IGNORED-'
         AGO   .FINI
.BASI03A ANOP
&D       SETA  &BR(&C)
         AIF   (&D LT 13 AND &D GT 1).BASIS04
         MNOTE 255,'''&D'' INVALID REGISTER NOTATION -MACRO IGNORED-'
         AGO   .FINI
.BASIS04 ANOP
&C       SETA  &C-1
         AIF   (&C NE 0).BASIS03
&C       SETA  &BR(1)
         AIF   (&C NE 11).BASIS05
&S       SETC  '12'
.BASIS05 ANOP
&E       SETA  &BR(1)
         AIF   (&A EQ 1).BASIS08
&J       SETB  1
&F       SETA  &BR(2)
         AIF   (&E NE &F).BASIS07
.BASIS06 ANOP
         MNOTE 255,'DUPLICATE BASIS REGISTERS -MACRO IGNORED-'
         AGO   .FINI
.BASIS07 AIF   (&A EQ 2).BASIS08
&K       SETB  1
&G       SETA  &BR(3)
         AIF   (&G EQ &E OR &G EQ &F).BASIS06
         AIF   (&A EQ 3).BASIS08
&L       SETB  1
&H       SETA  &BR(4)
         AIF   (&H EQ &G OR &H EQ &E OR &H EQ &F).BASIS06
.BASIS08 ANOP
&AA      SETA  1
         AIF   (&GBASISA LE 20).BASIS09
         MNOTE 255,'MORE THAN 20 MACRO-CALLS -MACRO IGNORED-'
         AGO   .FINI
.BASIS09 AIF   (&AA EQ &GBASISA).BASIS10
         AIF   ('&NAM(&AA)' EQ '&SYSECT').BASIS11
&AA      SETA  &AA+1
         AGO   .BASIS09
.BASIS10 ANOP
&NAM(&GBASISA) SETC '&SYSECT'
&GBASISA SETA  &GBASISA+1
         AGO   .BASIS12
.BASIS11 MNOTE 0,'MACRO USED MORE THAN ONE TIME IN A CSECT'
&M       SETB  1
.BASIS12 ANOP
&V       SETC  'C'.'&AA'.'W'
*
* SECTION INITIALIZATION               MACRO DRZ HH (OS) *VERS.2* 8.70
*
         AIF   ('&ID' NE '').BASIS13
         STM   14,12,12(13)
         AGO   .BASIS14
.BASIS13 STM   14,12,12(13)
.BASIS14 ANOP
A&SYSNDX.W BALR  &E,0                  LOAD BASEREGISTER 1
         AIF   (&J).BASIS20
         USING *,&E
         AGO   .BASIS23
.BASIS20 AIF   (&K).BASIS21
         USING *,&E,&F
         AGO   .BASIS23
.BASIS21 AIF   (&L).BASIS22
         USING *,&E,&F,&G
         AGO   .BASIS23
.BASIS22 USING *,&E,&F,&G,&H
.BASIS23 ANOP
&U       SETC  'D'.'&SYSNDX'.'W'
B&SYSNDX.W LA  &S,&V         GET ADRESS OF OWN SAVEAREA
         ST    &S,8(13)      STORE ADR. OF OWN SAVEA TO CALLING SAVEA
         ST    13,4(&S)      STORE ADR. OF CALLING SAVEA TO OWN SAVEA
         AIF   ('&APL' EQ '').BASI231
         LR    1,13
         CLC   4(4,1),&APL   ADRESS OF HIGHER SAVEAREA ZERO?
         BE    C&SYSNDX.W    IF SYSTEM SAVEAREA IS REACHED
         ST    1,&APL+4      SAVE ADRESS OF SAVEAREA
         L     1,4(1)        CHAIN BACK TO HIGHER SAVEAREA
         CLC   &APL+4(4),8(1) BACK CHAINING OK?
         BE    *-24                    IF OK - LOOP
         ABEND 254,DUMP                IF BACK CHAINING INVALID
C&SYSNDX.W L   1,24(1)       GET ADRESS OF SYSTEM PARAMETER LIST
         ST    1,&APL        APPLY SYSTEM PARAMETER LIST
&O       SETB  1
.BASI231 L     1,24(13)      GET ADRESS OF CALLING PROGRAM PARAM. LIST
         LR    13,&S         LOAD ADRESS OF OWN SAVEAREA TO REG. 13
         XC    8(4,13),8(13) CLEAR ADRESS OF LOWER SAVEAREA
         AIF   (NOT &J).BASIS24
         L     &BR(2),&U
.BASIS24 AIF   (NOT &K).BASIS25
         L     &BR(3),&U+4
.BASIS25 AIF   (NOT &L).BASIS26
         L     &BR(4),&U+8   LOAD BASEREGISTER 4
.BASIS26 B     E&SYSNDX.W              BRANCH AROUND CONSTANTS
         AIF   (&M).BASI26A
&V       DC    18F'0'                  OWN SAVEAREA
.BASI26A AIF   (NOT &J).BASIS27
&U       DC    A(A&SYSNDX.W+2+4096)    BASIS FOR BASEREGISTER 2
.BASIS27 AIF   (NOT &K).BASIS28
         DC    A(A&SYSNDX.W+2+2*4096)  BASIS FOR BASEREGISTER 3
.BASIS28 AIF   (NOT &L).BASIS29
         DC    A(A&SYSNDX.W+2+3*4096)  BASIS FOR BASEREGISTER 4
.BASIS29 ANOP
         AIF   (NOT &O).BASI291
&APL     DC    F'0'       ADRESS OF SYSTEM PARAMETER LIST
         DC    F'0'       WORK FOR BACK CHAINING
.BASI291 ANOP
E&SYSNDX.W EQU *
         AIF   (NOT &N).BASIS30
         MNOTE O,'MORE THAN 4 BASEREGISTERS GIVEN - 4 ASSUMED -'
.BASIS30 AIF   (N'&SYSLIST LE 3).FINI
         MNOTE O,'MORE THAN 3 PARAMETERS -REST IGNORED-'
.FINI    SPACE 2
         MEND
./ ADD  NAME=BCH1PARM
** TITLE   DEFINITION PARAMETER FUER LUBCH1
** OWNER   128.FRANZ
** LCHNG   10/13/82 08:59:05   Z227368 PELIKAN
         MACRO
&NM      BCH1PARM &TYPE=DEF,&PREF=BCH
         LCLC  &N
&N       SETC  '&NM'
         AIF   ('&TYPE' NE 'DSECT').DEF
&N       DSECT
&N       SETC  ' '
.DEF     ANOP
         SPACE 3
*        DEFINITION DER PARAMETER FUER LUBCH1
*
&N        DS    0D
&PREF.ANZ DS    H          ANZAHL ELEMENTE IN TABELLE
&PREF.LEN DS    H          LAENGE EINES TABELLEN ELEMENTS
&PREF.ANF DS    H          POSITION SUCHBEGRIFF1 ANFANG
&PREF.END DS    H          POSITION SUCHBEGRIFF1 ENDE
&PREF.BIS DS    H          POSITION SUCHGEGRIFF2 ANFANG
&PREF.SUZ DS    H          ANZAHL SUCHSCHRITTE
&PREF.FST DS    H          ELEMENT NUMMER 1. VERGLEICH
&PREF.FLN DS    H          VERGLEICHS LAENGE (-1) FUER EX
&PREF.STB DS    F          A(ZWEITES VERGLEICHS ELEMENT)
&PREF.STA DS    F          A(ERSTES VERGLEICHS ELEMENT)
&PREF.BER DS    F          ERSTER BERICHTIGUNGSWERT BEI LOW
&PREF.BEH DS    H          ERSTER BERICHTIGUNGSWERT FUER # BEI HIGH
&PREF.BWH DS    H          ERSTE ADDRESS BERICHTIGUNG BEI HIGH
         MEND
./ ADD  NAME=BCH2PARM
** TITLE   DEFINITION PARAMETER FUER LUBCH2
** OWNER   128.FRANZ
** LCHNG   10/13/82 09:00:33   Z227368 PELIKAN
         MACRO
&NM      BCH2PARM &TYPE=DEF,&PREF=BCH
         LCLC  &N
&N       SETC  '&NM'
         AIF   ('&TYPE' NE 'DSECT').DEF
&N       DSECT
&N       SETC  ' '
.DEF     ANOP
         SPACE 3
*        DEFINITION DER PARAMETER FUER LUBCH2
*
&N        DS    0D
&PREF.ANZ DS    F          ANZAHL ELEMENTE IN TABELLE
&PREF.LEN DS    F          LAENGE EINES TABELLEN ELEMENTS
&PREF.ANF DS    F          POSITION SUCHBEGRIFF1 ANFANG
&PREF.END DS    F          POSITION SUCHBEGRIFF1 ENDE
&PREF.BIS DS    F          POSITION SUCHBEGRIFF2 ANFANG
&PREF.SUZ DS    F          ANZAHL SUCHSCHRITTE
&PREF.FST DS    F          ELEMENT NUMMER 1. VERGLEICH
&PREF.FLN DS    F          VERGLEICHS LAENGE (-1) FUER EX
&PREF.STB DS    F          A(ZWEITES VERGLEICHS ELEMENT)
&PREF.STA DS    F          A(ERSTES VERGLEICHS ELEMENT)
&PREF.BER DS    F          ERSTER BERICHTIGUNGSWERT BEI LOW
&PREF.BEH DS    F          ERSTER BERICHTIGUNGSWERT FUER # BEI HIGH
&PREF.BWH DS    F          ERSTE ADDRESS BERICHTIGUNG BEI HIGH
         MEND
./ ADD  NAME=BHER
** TITLE   GHH
** OWNER   FRANZ
** LCHNG   01/20/82 14:12:53   Z227128 FRANZ
  MIST  QUADRAT
./ ADD  NAME=BLR
         MACRO
&NAME    BLR   &REG
&NAME    BCR   4,&REG
         MEXIT
         MEND
./ ADD  NAME=BMR
         MACRO
&NAME    BMR   &REG
&NAME    BCR   4,&REG
         MEXIT
         MEND
./ ADD  NAME=BNER
         MACRO
&NAME    BNER  &REG
&NAME    BCR   7,&REG
         MEXIT
         MEND
./ ADD  NAME=BNHR
         MACRO
&NAME    BNHR  &REG
&NAME    BCR   13,&REG
         MEXIT
         MEND
./ ADD  NAME=BNLR
         MACRO
&NAME    BNLR  &REG
&NAME    BCR   11,&REG
         MEXIT
         MEND
./ ADD  NAME=BNMR
         MACRO
&NAME    BNMR  &REG
&NAME    BCR   11,&REG
         MEXIT
         MEND
./ ADD  NAME=BNOR
         MACRO
&NAME    BNOR  &REG
&NAME    BCR   14,&REG
         MEXIT
         MEND
./ ADD  NAME=BNPR
         MACRO
&NAME    BNPR  &REG
&NAME    BCR   13,&REG
         MEXIT
         MEND
./ ADD  NAME=BNZR
         MACRO
&NAME    BNZR  &REG
&NAME    BCR   7,&REG
         MEXIT
         MEND
./ ADD  NAME=BOR
         MACRO
&NAME    BOR   &REG
&NAME    BCR   1,&REG
         MEXIT
         MEND
./ ADD  NAME=BPR
         MACRO
&NAME    BPR   &REG
&NAME    BCR   2,&REG
         MEXIT
         MEND
./ ADD  NAME=BZR
         MACRO
&NAME    BZR   &REG
&NAME    BCR   8,&REG
         MEXIT
         MEND
./ ADD  NAME=CATREC
         MACRO
         CATREC &P1
         AIF   ('&P1' EQ 'RECORD').RECORD
CATREC   DSECT                     START OF CATREC AREA
*
* COMMON SECTION (RECORD TYPE 5)
*
.RECORD  ANOP
CCHAIN   DS    F                   ADDRESS OF NEXT BUFFER
CVOLSER  DS    CL6                 VOLUME SERIAL OF TAPE
CSA      DS    CL1                 RECORD TYPE (5)
CRECCNT  DS    XL2                 RECORD COUNT
CRGN     DS    CL2                 RELATIVE GENERATION NUMBER
CGDGDSNL DS    XL1                 LENGTH OF GDG INDEX
         DS    CL3                 RESERVED
CIDENT   DS    CL1                 IDENTIFIER (D=DATASET G=GDG)
CCGC     DS    XL2                 CURRENT GDG COUNT
CMGA     DS    XL1                 MAX. GENERATION NUMBER
CFLAGS   DS    XL1                 FLAGS
CDEVCD   DS    XL4                 DEVICE CODE
CDSN     DS    CL44                DATA SET NAME
CSTAT    DS    CL1                 STATUS
CVSERCAT DS    CL6                 VOLSER OF CATALOG
CTYPE    DS    CL1                 CATALOG TYPE (V=VSAM C=CVOL)
CSUFF    DS    CL1                 DDNAME SUFFIX (ARCHCATX)
CFSEQ    DS    XL1                 FILE SEQUENCE NUMBER
CVOLCNT  DS    XL2                 VOLUME COUNT
         DS    CL20                RESERVED
         AIF   ('&P1' EQ 'RECORD').EXIT
CRGDG    DS    H                   RELATIVE GENERATION NUMBER
CSAVE    DS    18F                 NORMAL SAVE AREA
CWORKREG DS    10F                 WORK REGISTER SAVE AREA
CVAR     DS    0F                  START OF VARAIBLE PART
*
* CVOL SECTION
*
SPCDSN   DS    CL88                DSNAME AREA + 44 BLANKS
SPCTTR   DS    CL3                 TTR FIELD FOR READING CATALOG
SPCTTR0  DS    C                   FOURTH TTR BYTE FOR POINT (ZERO)
SPCDSNL  DS    X                   LENGTH OF DSNAME
SPCNODL  DS    X                   LENGTH OF DSNAME UP TO LAST NODE
SPCFRBUF DS    A                   ADDR. OF NEXT FREE BUFFER
CDCB     DCB   DDNAME=DUMMY,DSORG=PS,MACRF=RP
CLDCB    EQU   *-CDCB              LENGTH OF DCB
CCVOLBUF DS    23CL288             23 TIMES CIRWORK AREA
CATCEND  DS    0D                  END OF CVOL PART
CATCLEN  EQU   *-CATREC            LENGTH OF CVOL PART
CATREND  DS    0D                  END OF CATREC AREA
CATRLEN  EQU   *-CATREC            LENGTH OF CATREC AREA
.EXIT    MEND
./ ADD  NAME=CLEAR
         MACRO
&NAME    CLEAR &T,&L,&CHAR
         LCLC  &LEN
         LCLC  &BLANK
&LEN     SETC  'L'''
         AIF   ('&T'(1,1) EQ '(').C1
&NAME    LA    0,&T .       LOAD ADDRESS OF RECEIVING FIELD
         AGO   .C2
.C1      ANOP
&NAME    LR    0,&T(1) .     LOAD ADDRESS OF RECEIVING FIELD
.C2      ANOP
         AIF   (T'&L NE 'O').C71
         LA    1,&LEN&T .        GET LENGTH
         AGO   .C4
.C71     ANOP
         AIF   ('&L'(1,1) EQ '(').C3
         AIF   (T'&L NE 'N').C7
.C9      LA    1,&L .       GET LENGTH
         AGO   .C4
.C7      AIF   (T'&L EQ 'F').C8
         AIF   (T'&L NE 'H').C9
        LH    1,&L .       GET LENGTH
         AGO   .C4
.C8      L     1,&L .      GET LENGTH
         AGO   .C4
.C3      LR    1,&L(1) .     GET LENGTH
.C4      ANOP
&BLANK   SETC  'X''40'''
         AIF   (T'&CHAR NE 'O').C81
         LA    15,&BLANK .     GET PADDING CHARACTER
         AGO   .C42
.C81     ANOP
         AIF   (T'&CHAR NE 'N').C82
         LA    15,&CHAR  .        GET PADDING CHARACTER
         AGO   .C42
.C82     ANOP
         AIF   ('&CHAR'(1,1) NE '(').C83
         IC    15,0(&CHAR)  .        GET PADDING CHARACTER
         AGO   .C42
.C83     ANOP
         IC    15,&CHAR .       GET PADDING CHARACTER
.C42     ANOP
         SLL   15,24 .       CLEAR LENGTH
         SR    14,14 .      INDICATES NO SENDING FIELD
         MVCL  0,14 .         MOVE LONG
         MEND
./ ADD  NAME=CMPR
         MACRO
&NAME    CMPR  &T,&L,&F
         GBLB  &FIRSTC
         GBLC  &GOTOCL1
         GBLC  &CSECTC
         LCLC  &GOTOCL2
         LCLC  &GOTOCL3
         AIF   (&FIRSTC).W0
&CSECTC  SETC  '&SYSECT'
.W0      AIF   ('&T'(1,1) EQ '(').W1
&NAME    LA    1,&T      LOAD ADDRESS OF FIELD TO BE COMPARED
         AGO   .W2
.W1      ANOP
&NAME    LR    1,&T(1)   LOAD ADDRESS OF FIELD TO BE COMPARED
.W2      AIF   ('&L'(1,1) EQ '(').W6
         AIF   (T'&L NE 'N').W4
.W3      LA    15,&L     GET LENGTH
         AGO   .W7
.W4      AIF   (T'&L EQ 'F').W5
         AIF   (T'&L NE 'H').W3
         LH    15,&L     GET LENGTH
         AGO   .W7
.W5      L     15,&L     GET LENGTH
         AGO   .W7
.W6      LR    15,&L(1)  GET LENGTH
.W7      AIF   ('&F'(1,1) EQ '(').W8
         LA    2,&F      LOAD ADDRESS OF SECOND FIELD TO BE COMPARED
         AGO   .W9
.W8      LR    2,&F(1)   LOAD ADDRESS OF SECOND FIELD TO BE COMPARED
.W9      AIF   ('&CSECTC' EQ '&SYSECT').W10
&FIRSTC  SETB  0
&CSECTC  SETC  'SYSECT'
.W10     AIF   (&FIRSTC).W11
&FIRSTC  SETB  1
&GOTOCL1 SETC  'CL1&SYSNDX'
&GOTOCL2 SETC  'CL2&SYSNDX'
&GOTOCL3 SETC  'CL3&SYSNDX'
         LA    14,&GOTOCL3+2 GET ADDRESS OF NEXT INSTRUCTION
         LA    0,256
&GOTOCL1 CR    15,0
         BL    &GOTOCL2  BRANCH TO CLC
         CLC   0(256,1),0(2) COMPARE OF 256 BYTES
         BNE   &GOTOCL3
         SR    15,0      REDUCE ACTUAL LENGTH
         AR    1,0       RESET FIELD POINTER
         AR    2,0       RESET FIELD POINTER
         B     &GOTOCL1  GO TO COMPARE OF LENGTH
         CLC   0(0,1),0(2) EXEC - CLC
&GOTOCL2 LTR   15,15
         BZ    &GOTOCL3  IF ZERO GO TO MEND
         BCTR  15,0
         EX    15,&GOTOCL2-6 COMPARE REMAINING BYTES
&GOTOCL3 BR    14        RETURN
         MEXIT
.W11     BAL   14,&GOTOCL1-4 BRANCH TO COMPARE - LOOP
         MEND
./ ADD  NAME=CONVDAT
  TITLE 'CONVDAT - CONVERTS DATE FROM YYDDDF TO EG. MONTAG 6. MAI 1974'
CONVDAT  CSECT
         XSAVE 12,SA,CONVDAT
         LM    3,4,0(1)                PARMADDRESSES
         OI    3(3),X'0F'              SET RIGHTEST HALFBYTE HEX F
         MVC   DATE,0(3)               DATE
         CLC   DATE,=XL4'0F'
         BNE   N#A#D                   NO ACTUAL DATE
         TIME  DEC
         ST    1,DATE                  ACTUAL DATE