         MACRO
&NAME    IFASMFR &RECTYPE
.*C 148500                                                        M4432
.*A 153500                                                        M4432
.*C 809100,852300                                                A40791
.*A 232700,232900-233600,296600,296900,808700,808940,809000      A40791
.*A 851900                                                       A40791
.*A 639500,639600                                                A40793
.*C 014400,018800,028800-296900,310500                           X02992
.*A 011300,018820,069800,076100,086900-087100,089600,093700      X02992
.*A 131000-131392,296620-297400,661534-974592                    X02992
.*D 296900                                                       X02992
.*D 966659,966663                                                XM9113
.*C 965696,967697,969369,971674,972685,973690                    XM9113
.*A 965796,965896,967797,967997,969416,969436,971675,971676      XM9113
.*A 972686,972687,973857,973957                                  XM9113
.*C 014400,018800                                                X02034
.*D 010800,067500,073800,080100-080900,089100,093600             X02034
.*D 118800-130500,172720-172784,406400,454100,470620-470684      X02034
.*D 661034-963900                                                X02034
.*C 028800                                                       X02989
.*A 011400,093800,131396-132099,974593-985612                    X02989
.*D 145800,170100,187200,201600,216000,263700,321300,356400     XL03034
.*D 376200,397800,420300,445500,468000,471599,484200,579600     XL03034
.*D 603000,627300,650700,659699,965684,967694,968696,971614     XL03034
.*D 972673,973684,975595,978783,983158,984575                   XL03034
.*D 012600-014400,018700-019800,041400-044100,048600-089600     XL03034
.*D 095400,096300,103500,104400,112500,113400,131100,131200     XL03034
.*D 131397,472467,661034,974593,985712                          XL03034
.*C 144900,169200,186300,215100,262800,320400,355500,375300     XL03034
.*C 396900,419400,444600,467100,471598,483300,578700,602100     XL03034
.*C 626400,649800,659698,667034,967690,968695,971594,972653     XL03034
.*C 973680,975591,978763,983157,984555                          XL03034
.*C 018000,020700,026100,153900,172800,188100,202500,250200     XL03034
.*C 306000,341100,362700,384300,406800,432000,454500,470700     XL03034
.*C 472456,568800,592200,616500,639900,658800,660999,967031     XL03034
.*C 968480,969616,971686,972942,975591,976052,981323,983258     XL03034
.*C 985612                                                      XL03034
.*D 978783                                                      XL036WC
.*C 296700,297400,310500,340700                                 XM34563
*  THIS IS AN SMF MACRO WHICH BUILDS ANY NUMBER OF SMF RECORDS. THE
* REQUIRED FORMAT IS -
*
*        IFASMFR  &RECTYPE                                      XL03034
*  NOTE: VALUES FOR &RECTYPE MUST BE ENCLOSED IN PARENS(UNLESS ONLY 1)
*  THE POSSIBLE VALUES FOR &RECTYPE ARE:
*
*        0 - 13                SUBSET1 TYPE RECORDS
*        14,17-21              SUBSET2 TYPE RECORDS
*           TYPE 15 IS A SUBSET 2 RECORD BUT DOES NOT HAVE A UNIQUE
*           DSECT. IF 15 IS SPECIFIED, THE TYPE 14 DSECT IS PRODUCED.
*           14 AND 15 CAN NOT BOTH BE SPECIFIED IN ONE PROGRAM.
*        43-45,47-49           SUBSYSTEM TYPE RECORDS            X02992
*        62,64,68-69           VSAM TYPE RECORDS                 X02989
*
         LCLA  &NUM,&B                                          XL03034
.* &NUM IS SET TO THE NUMBER OF SUBSTRING ITEMS IN THE FIRST PARAMETER
.* AND &B IS USED TO POINT AT EACH SUBSTRING ITEM.
         AIF   ('&RECTYPE' EQ '').E1                            XL03034
&NUM     SETA  N'&RECTYPE
         AGO   .CONTC
.CONTB   ANOP
&NUM     SETA  &NUM-1
.CONTC   ANOP
         AIF   (&NUM LE 0).OUT                                  XL03034
&B       SETA  &B+1
.RTYCHK  AIF   ('&RECTYPE(&B)' EQ '').E3
         AIF   (&RECTYPE(&B) GT 69 OR &RECTYPE(&B) LT 0).E5      X02992
         AGO   .CONTA
.E1      ANOP
         SPACE 3
         MNOTE 8,'PARAMETERS OMITTED, PROCESSING TERMINATED'
         MEXIT
.E3      ANOP
         SPACE 3
         MNOTE 4,'NULL RECORD TYPE PASSED'
         AGO   .CONTB
.E5      ANOP
         SPACE 3
         MNOTE 4,'&RECTYPE(&B) INVALID RECORD TYPE SPECIFIED'
         AGO   .CONTB
.CONTA   AIF   (&RECTYPE(&B) GE 0 AND &RECTYPE(&B) LE 5).G1
         AIF   (&RECTYPE(&B) GE 6 AND &RECTYPE(&B) LE 13).G2
         AIF   (&RECTYPE(&B) GE 14 AND &RECTYPE(&B) LE 21).G3
         AIF   (&RECTYPE(&B) GE 43 AND &RECTYPE(&B) LE 49).G5    X02992
         AIF   (&RECTYPE(&B) GE 62 AND &RECTYPE(&B) LE 69).G6    X02989
         AGO   .E5
.G1      ANOP
         AIF   (&RECTYPE(&B) EQ 0).IFAS000
         AIF   (&RECTYPE(&B) EQ 1).IFAS001
         AIF   (&RECTYPE(&B) EQ 2).IFAS002
         AIF   (&RECTYPE(&B) EQ 3).IFAS003
         AIF   (&RECTYPE(&B) EQ 4).IFAS004
         AIF   (&RECTYPE(&B) EQ 5).IFAS005
.G2      ANOP
         AIF   (&RECTYPE(&B) EQ 6).IFAS006
         AIF   (&RECTYPE(&B) EQ 7).IFAS007
         AIF   (&RECTYPE(&B) EQ 8).IFAS008
         AIF   (&RECTYPE(&B) EQ 9).IFAS009
         AIF   (&RECTYPE(&B) EQ 10).IFAS010
         AIF   (&RECTYPE(&B) EQ 11).IFAS011
         AIF   (&RECTYPE(&B) EQ 12).IFAS012
         AIF   (&RECTYPE(&B) EQ 13).IFAS013
.G3      ANOP
         AIF   (&RECTYPE(&B) EQ 16).E5
         AIF   (&RECTYPE(&B) EQ 14 OR &RECTYPE(&B) EQ 15).IFAS014
         AIF   (&RECTYPE(&B) EQ 17).IFAS017
         AIF   (&RECTYPE(&B) EQ 18).IFAS018
         AIF   (&RECTYPE(&B) EQ 19).IFAS019
         AIF   (&RECTYPE(&B) EQ 20).IFAS020
         AIF   (&RECTYPE(&B) EQ 21).IFAS021
         AGO   .E5
.G5      ANOP                                                    X02992
         AIF   (&RECTYPE(&B) EQ 43).IFAS043                      X02992
         AIF   (&RECTYPE(&B) EQ 44).IFAS044                      X02992
         AIF   (&RECTYPE(&B) EQ 45).IFAS045                      X02992
         AIF   (&RECTYPE(&B) EQ 47).IFAS047                      X02992
         AIF   (&RECTYPE(&B) EQ 48).IFAS048                      X02992
         AIF   (&RECTYPE(&B) EQ 49).IFAS049                      X02992
         AGO   .E5                                               X02992
.G6      ANOP                                                    X02989
         AIF   (&RECTYPE(&B) EQ 62).IFAS062                      X02989
         AIF   (&RECTYPE(&B) EQ 64).IFAS064                      X02989
         AIF   (&RECTYPE(&B) EQ 68).IFAS068                      X02989
         AIF   (&RECTYPE(&B) EQ 69).IFAS069                      X02989
         AGO   .E5                                               X02989
.OUT     MEXIT
.IFAS000 ANOP
         EJECT
*  THIS DSECT DEFINES THE FORMAT FOR RECORD TYPE 0 (IPL RECORD)
*  RECORD LENGTH IS 31 BYTES
*
         DS    0F        ALIGN TO FULL WORD BOUNDARY
SMFRCD0  EQU   *         HEADER SEGMENT
SMF0LEN  DS    BL2'0'    RECORD LENGTH
SMF0SEG  DS    BL2'0'    SEGMENT DESCRIPTOR
SMF0FLG  DC    BL1'0'    HEADER FLAG BYTE
SMF0RTY  DC    BL1'0'    RECORD TYPE 0
SMF0TME  DC    4BL1'0'   TOD, USING FORMAT FROM TIME MACRO W/BIN. INTVL
SMF0DTE  DC    PL4'0000'      DATE IN PACKED DECIMAL FORM: 00YYDDDF
*                             ( F IS A SIGN)
SMF0SID  DC    4CL1' '   SYSTEM IDENTIFICATION                  XL03034
SMF0JWT  DC    4BL1'0'   JOB WAIT TIME DEFAULT VALUE IN MINUTES(BINARY)
SMF0BUF  DC    4BL1'0'   SMF BUFFER SIZE IN BYTES(BINARY)
SMF0VST  DC    4BL1'0'   VIRTUAL STORAGE SIZE IN K BLOCKS(BINARY) M4432
SMF0OPT  DC    BL1'0'    OPTIONS BYTE:
*              BIT0 - SYSTEM & JOB DATA TO BE COLLECTED
*              BIT1 - SYSTEM, JOB, & STEP DATA TO BE COLLECTED
*              BIT2 - EXITS REQUESTED
*              BIT3 - DATA SET ACCOUNTING
*              BIT4 - VOLUME ACCOUNTING
*              BIT5 - RESERVED(WAS ESV IN 14 AND 15)
*              BIT6 - TEMPORARY-DATA-SET SCRATCH RECORDS
*              BIT7 - =0 BACKGROUND JOB; =1 FOREGROUND JOB
SMF0RST  DC    4BL1'0'   REAL STORAGE SIZE IN K BLOCKS(BINARY)    M4432
         AGO   .CONTB                                           XL03034
.IFAS001 ANOP
         EJECT
*
* THIS RECORD IS WRITTEN AFTER EVERY IPL AND AT THE FIRST JOB/STEP
* TERMINATION AFTER THE EXPIRATION OF ONE 10 MINUTE INTERVAL.
* RECORD LENGTH  IS  54 BYTES.
*
         DS    0F        ALIGN TO FULL WORD BOUNDARY
SMFRCD1 EQU    *         HEADER SEGMENT
SMF1LEN  DS    BL2'0'    RECORD LENGTH
SMF1SEG  DS    BL2'0'    SEGMENT DESCRIPTOR
SMF1FLG  DC    BL1'0'    HEADER FLAG BYTE
SMF1RTY  DC    BL1'0'    RECORD TYPE 1
SMF1TME  DC    4BL1'0'   TOD, USING FORMAT FROM TIME MACRO W/BIN. INTVL
SMF1DTE  DC    PL4'0000'      DATE IN PACKED DECIMAL FORM: 00YYDDDF
*                             ( F IS A SIGN)
SMF1SID  DC    4CL1' '   SYSTEM IDENTIFICATION                  XL03034
SMF1SWT  DC    4BL1'0'       SYSTEM WAIT TIME IN HUNDREDTHS OF SECONDS
*                            COLLECTED DURING EXPIRED 10 MINUTE
*                            INTERVALS SINCE LAST WAIT TIME RECORD
SMF1TEXP DC    4BL1'0'   COLLECTION END TIME
SMF1PGIN DC    4BL1'0'   TOTAL PAGE-INS
SMF1PGOT DC    4BL1'0'   TOTAL PAGE-OUTS
SMF1PGRL DC    4BL1'0'   TOTAL PAGES RECLAIMED
         AGO   .CONTB                                           XL03034
.IFAS002 ANOP
         EJECT
* THIS RECORD IS WRITTEN BY THE SMF DUMP UTILITY PROGRAM AT THE
* BEGINNING OF A DUMP DATA SET. RECORD LENGTH IS 14 BYTES
*
         DS    0F        ALIGN TO FULL WORD BOUNDARY
SMFRCD2  EQU   *         HEADER SEGMENT
SMF2LEN  DS    BL2'0'    RECORD LENGTH
SMF2SEG  DS    BL2'0'    SEGMENT DESCRIPTOR
SMF2FLG  DC    BL1'0'    HEADER FLAG BYTE
SMF2RTY  DC    BL1'0'    RECORD TYPE 2
SMF2TME  DC    4BL1'0'   TOD, USING FORMAT FROM TIME MACRO W/BIN. INTVL
SMF2DTE  DC    PL4'0000'      DATE IN PACKED DECIMAL FORM: 00YYDDDF
*                             ( F IS A SIGN)
SMF2SID  DC    4CL1' '   SYSTEM IDENTIFICATION                  XL03034
         AGO   .CONTB                                           XL03034
.IFAS003 ANOP
         EJECT
* THIS RECORD  IS WRITTEN BY THE SMF DUMP UTILITY PROGRAM AT THE END
* OF A DUMP DATA SET. RECORD LENGTH IS  14 BYTES.
*
         DS    0F        ALIGN TO FULL WORD BOUNDARY
SMFRCD3  EQU   *         HEADER SEGMENT
SMF3LEN  DS    BL2'0'    RECORD LENGTH
SMF3SEG  DS    BL2'0'    SEGMENT DESCRIPTOR
SMF3FLG  DC    BL1'0'    HEADER FLAG BYTE
SMF3RTY  DC    BL1'0'    RECORD TYPE 3
SMF3TME  DC    4BL1'0'   TOD, USING FORMAT FROM TIME MACRO W/BIN. INTVL
SMF3DTE  DC    PL4'0000'      DATE IN PACKED DECIMAL FORM: 00YYDDDF
SMF3SID  DC    4CL1' '   SYSTEM IDENTIFICATION                  XL03034
         AGO   .CONTB                                           XL03034
.IFAS004 ANOP
         EJECT
* THIS RECORD IS WRITTEN AT NORMAL OR ABNORMAL TERMINATION OF A JOB
* STEP.RECORD LENGTH IS VARIABLE.
*
         DS    0F        ALIGN TO FULL WORD BOUNDARY
SMFRCD4  EQU   *         HEADER SEGMENT
SMF4LEN  DS    BL2'0'    RECORD LENGTH
SMF4SEG  DS    BL2'0'    SEGMENT DESCRIPTOR
SMF4FLG  DC    BL1'0'    HEADER FLAG BYTE
SMF4RTY  DC    BL1'0'    RECORD TYPE 4
SMF4TME  DC    4BL1'0'   TOD USING FORMAT FROM TIME MACRO W/BIN. INTVL.
SMF4DTE  DC    PL4'0000' DATE IN PACKED DECIMAL FORM: OOY4DDDF
SMF4SID  DC    4CL1' '   SYSTEM IDENTIFICATION                  XL03034
SMF4JBN  DC    8CL1' '   JOB NAME
SMF4RST  DC    4BL1'0'   READER START TIME (IN 100THS SECONDS)
SMF4RDS  DC    PL4'0000' READER START DATE
SMF4UIF  DC    8CL1' '   USER IDENTIFICATION FIELD
SMF4STN  DC    BL1'0'    STEP NUMBER
SMF4SIT  DC    4BL1'0'   STEP INITIATION TIME (IN 100THS SECONDS)
SMF4STID DC    PL4'0000' STEP INITIATION DATE (PACKED DECIMAL FORMAT)
SMF4NCI  DC    4BL1'0'   NUMBER OF CARD IMAGES IN DD DATA OR DD  *
*                        DATA SETS
SMF4SCC  DC    2BL1'0'   STEP COMPLETION CODE
SMF4PRTY DC    BL1'0'    PRIORITY AT WHICH STEP WAS DISPATCHED :
*                        ACTUAL PRIORITY=251-(15-USER PRIORITY)*16
SMF4PGMN DC    CL8' '    PROGRAM NAME
SMF4STMN DC    CL8' '    STEP NAME
SMF4RSH0 DC    2BL1'0'   REGION SIZE IN 1K BLKS REQUESTED
         DC    2BL1'0'   RESERVED
SMF4H0ST DC    2BL1'0'   STORAGE USED(VIRT OR REAL-SEE SMF4RIN)
         DC    6BL1'0'   RESERVED
SMF4SPK  DC    1BL1'0'   STORAGE PROTECT KEY                     A40791
SMF4STI  DC    1BL1'0'   STEP TERMINATION INDICATOR
*               BIT0 - RESERVED
*               BIT1 - CANCELLED AT EXIT IEFUJV
*               BIT2 - CANCELLED AT EXIT IEFUJI
*               BIT3 - CANCELLED AT EXIT IEFUSI
*               BIT4 - CANCELLED AT EXIT IEFACTRT
*               BIT5 - RESERVED
*               BIT6 - 0=NORMAL COMPLETION
*                      1=ABEND
*               BIT7 - 1=STEP FLUSHED
         DC    2BL1'0'   RESERVED                                A40791
SMF4AST  DC    4BL1'0'   DEVICE ALLOC START TIME                 A40791
SMF4PPST DC    4BL1'0'   PROBLEM PROGRAM START TIME              A40791
         DC    4BL1'0'   RESERVED
SMF4RIN  DC    2BL1'0'   RECORD INDICATORS
*                         BIT7 =0 STORAGE IS VIRTUAL
*                              =1 STORAGE IS REAL
SMF4RLCT DC    2BL1'0'   OFFSET TO RELOCATE SECTION
SMF4LENN DC    2BL1'0'   LENGTH OF EXCP PORTION OF RECORD
*        FOR EACH DEVICE ASSIGNED TO EACH DATA SET THERE IS AN 8 BYTE
*        ENTRY HAVING THE FOLLOWING FORMAT:
*
SMF4DEVC DC    BL1'0'    DEVICE CLASS
SMF4UTYP DC    BL1'0'    UNIT TYPE
SMF4CUAD DC    2BL1'0'   CHANNEL AND UNIT ADDRESS
SMF4EXCP DC    4BL1'0'   COUNT OF EXCP'S ISSUED FOR THE DEVICE AND
*                        DATA SET
         ORG   SMF4DEVC
SMF4LNTH DC    BL1'0'    TOTAL LENGTH OF CPU AND ACCT. SECTION
SMF4SETM DC    3BL1'0'   STEP EXECUTION TIME (IN 100THS SECONDS)
SMF4NAF  DC    BL1'0'    NUMBER OF ACCOUNTING FIELDS
SMF4ACTF DS    0C        EXEC STATEMENT ACCOUNTING FIELDS(VARIABLE)
*
*        EACH ENTRY FOR AN ACCOUNTING FIELD CONTAINS THE LENGTH OF THE
*        FIELD (1 BYTE,BINARY), FOLLOWED BY THE FIELD(EBCDIC).AN
*        OMITTED FIELD IS REPRESENTED BY A LENGTH INDICATOR OF 0.
*
*        RELOCATE SECTION
SMF4PGIN DS    4BL1'0'   NUMBER OF PAGE-INS
SMF4PGOT DS    4BL1'0'   NUMBER OF PAGE-OUTS
         AGO   .CONTB                                           XL03034
.IFAS005 ANOP
         EJECT
* THIS RECORD IS WRITTEN AT  NORMAL OR ABNORMAL TERMINATION OF A JOB.
* RECORD LENGTH IS VARIABLE.
*
         DS    0F        ALIGN TO FULL WORD BOUNDARY
SMFRCD5  EQU   *         HEADER SEGMENT
SMF5LEN  DS    BL2'0'    RECORD LENGTH
SMF5SEG  DS    BL2'0'    SEGMENT DESCRIPTOR
SMF5FLG  DC    BL1'0'    HEADER FLAG BYTE
SMF5RTY  DC    BL1'0'    RECORD TYPE 5
SMF5TME  DC    4BL1'0'   TOD USING FORMAT FROM TIME MACRO W/BIN. INTVL.
SMF5DTE  DC    PL4'0000' DATE, PACKED DEC. FORM : OOYYDDDF(F IS A SIGN)
SMF5SID  DC    4CL1' '   SYSTEM IDENTIFICATION                  XL03034
SMF5JBN  DC    8CL1' '   JOB NAME
SMF5RST  DC    4BL1'0'   READER START TIME FOR JOB (IN 100THS/SECONDS)
SMF5RSD  DC    PL4'0000' READER START DATE,PACKED DECIMAL FORMAT
SMF5UIF  DC    8CL1' '   USER IDENTIFICATION FIELD
SMF5NST  DC    BL1'0'    NUMBER OF STEPS IN THE JOB
SMF5JIT  DC    4BL1'0'   JOB INITIATION TIME (IN 100THS/SECONDS)
SMF5JID  DC    PL4'0000' JOB INITIATION DATE, PACKED DECIMAL FORMAT
SMF5NCI  DC    4BL1'0'   NUMBER OF CARD-IMAGE RECORDS IN DD DATA OR DD*
*                        DATA SETS
SMF5JCC  DC    2BL1'0'   JOB COMPLETION CODE
SMF5JPTY DC    BL1'0'    JOB PRIORITY
SMF5RSTT DC    4BL1'0'   READER STOP TIME FOR JOB (IN 100THS/SECONDS)
SMF5RSTD DC    PL4'0000' READER STOP DATE FOR JOB (IN PACKED DEC.FORM)
SMF5JBTI DC    BL1'0'    JOB TERMINATION INDICATOR
*                        BIT0-RESERVED
*                           1-CANCELLED AT EXIT IEFUJV
*                           2-CANCELLED AT EXIT IEFUJI
*                           3-CANCELLED AT EXIT IEFUSI
*                           4-CANCELLED AT EXIT IEFACTRT
*                           5-RESERVED
*                           6-O=NORMAL COMPLETION
*                             1=ABEND
*                           7-RESERVED
SMF5SMCI DC    5BL1'0'   SYSOUT CLASSES AND MSGCLASS INDICATOR
         DC    BL1'0'    RESERVED
SMF5RDCL DC    BL1'0'    READER DEVICE CLASS
SMF5RUTY DC    BL1'0'    READER UNIT TYPE
SMF5JICL DC    CL1' '    JOB INPUT CLASS
SMF5SPK  DC    1BL1'0'   STORAGE PROTECT KEY                     A40791
         DC    3BL1'0'   RESERVED                                X02992
SMF5QID  DC    8CL1' '   RES USER IDENTIFICATION                XM34563
         DC    8BL1'0'   RESERVED                               XM34563
SMF5TLEN DC    BL1'0'    TOTAL LENGTH OF REST OF RECORD
SMF5PRGN DC    20CL1' '  PROGRAMMER'S NAME
SMF5JCPU DC    3BL1'0'   JOB CPU TIME (IN 100THS/SECONDS)
SMF5ACTF DC    BL1'0'    NUMBER OF ACCOUNTING FIELDS
SMF5JSAF DS    0C        JOB STATEMENT ACCOUNTING FIELDS(VARIABLE)
*
*        EACH ENTRY FOR AN ACCOUNTING FIELD CONTAINS THE LENGTH OF THE
*        FIELD(1 BYTE,BINARY),FOLLOWED BY THE FIELD (EBCDIC).AN OMITTED
*        FIELD IS REPRESENTED BY A LENGTH INDICATOR OF 0.
         AGO   .CONTB                                           XL03034
.IFAS006 ANOP
         EJECT
* THIS RECORD IS WRITTEN WHEN PROCESSING OF A SYSOUT CLASS IS COMPLETED
* FOR A JOB,AND WHEN THE FORM CHANGES WITHIN A CLASS. RECORD LENGTH IS
* 65 BYTES.                                                     XM34563
*
         DS    0F        ALIGN TO FULL WORD BOUNDARY
SMFRCD6  EQU   *         HEADER SEGMENT
SMF6LEN  DS    BL2'0'    RECORD LENGTH
SMF6SEG  DS    BL2'0'    SEGMENT DESCRIPTOR
SMF6FLG  DC    BL1'0'    HEADER FLAG BYTE
SMF6RTY  DC    BL1'0'    RECORD TYPE 6
SMF6TME  DC    4BL1'0'   TOD, USING FORMAT FROM TIME MACRO W/BIN. INTVL
SMF6DTE  DC    PL4'0000'      DATE IN PACKED DECIMAL FORM: 00YYDDDF
*                             ( F IS A SIGN)
SMF6SID  DC    4CL1' '   SYSTEM IDENTIFICATION                  XL03034
SMF6JBN  DC    8CL1' '  JOB NAME
SMF6RST  DC    4BL1'0'  READER START TIME
SMF6RSD  DC    PL4'0000' READER START DATE ; 00YYDDDF
SMF6UIF  DC    CL8' '   USER ID FIELD
SMF6OWC  DC    CL1' '   OUTPUT WRITER CLASS
SMF6WST  DC    4BL1'0'  WRITER START TIME
SMF6WSD  DC    PL4'0000' WRITER START DATE
SMF6NLR  DC    4BL1'0'  NUMBER OF LOGICAL RECORDS FOR THE WRITER
*                       PER FORM NUMBER PER CLASS
SMF6IOE  DC    BL1'0'   IO ERROR INDICATOR:
*                       BITS 0-3 RESERVED
*                       4 - I/O DISCONTINUED(REMOTE OUTPUT ONLY)
*                       5 - INPUT ERROR
*                       6 - OUTPUT ERROR
*                       7 - INPUT ERROR ON SYS1.SYSJOBQE
SMF6NDS  DC    BL1'0'   NUMBER OF DATA SETS PROCESSED  BY THE OUTPUT
*                       WRITER FOR THE JOB
SMF6FMN  DC    4CL1' '  FORM NUMBER
SMF6QID  DC    8CL1' '  RES USER IDENTIFICATION                 XM34563
         AGO   .CONTB                                           XL03034
.IFAS007 ANOP
         EJECT
* THIS RECORD IS WRITTEN WHEN AN SMF DATA SET BECOMES AVAILABLE
* FOLLOWING THE UNAVAILABILITY OF AN SMF DATA SET. RECORD LENGTH IS
* 24 BYTES.
*
         DS    0F        ALIGN TO FULL WORD BOUNDARY
SMFRCD7  EQU   *         HEADER SEGMENT
SMF7LEN  DS    BL2'0'    RECORD LENGTH
SMF7SEG  DS    BL2'0'    SEGMENT DESCRIPTOR
SMF7FLG  DC    BL1'0'    HEADER FLAG BYTE
SMF7RTY  DC    BL1'0'    RECORD TYPE 7
SMF7TME  DC    4BL1'0'   TOD, USING FORMAT FROM TIME MACRO W/BIN. INTVL
SMF7DTE  DC    PL4'0000'      DATE IN PACKED DECIMAL FORM: 00YYDDDF
*                             ( F IS A SIGN)
SMF7SID  DC    4CL1' '   SYSTEM IDENTIFICATION                  XL03034
SMF7NRO  DC    2BL1'0'  NUMBER OF SMF RECORDS OMITTED FROM DATA SET
SMF7STM  DC    4BL1'0'  STARTING TIME IN HUNDREDTHS OF SECONDS AT
*                       WHICH NO DATA SET WAS AVAILABLE FOR RECORDING
*                       SMF RECORDS
SMF7STD  DC    PL4'0000' STARTING DATE AT WHICH NO DATA SET WAS
*                       AVAILABLE FOR RECORDING SMF RECORDS
         AGO   .CONTB                                           XL03034
.IFAS008 ANOP
         EJECT
* THIS RECORD IS WRITTEN AFTER COMPLETION OF IPL, FOLLOWING THE SET
* DATE COMMAND. RECORD LENGTH IS VARIABLE.
*
         DS    0F        ALIGN TO FULL WORD BOUNDARY
SMFRCD8  EQU   *         HEADER SEGMENT
SMF8LEN  DS    BL2'0'    RECORD LENGTH
SMF8SEG  DS    BL2'0'    SEGMENT DESCRIPTOR
SMF8FLG  DC    BL1'0'    HEADER FLAG BYTE
SMF8RTY  DC    BL1'0'    RECORD TYPE 8
SMF8TME  DC    4BL1'0'   TOD USING FORMAT FROM TIME MACRO W/BIN. INTVL.
SMF8DTE  DC    PL4'0000' DATE IN PACKED DEC.FORMAT: OOYYDDDF
SMF8SID  DC    4CL1' '   SYSTEM IDENTIFICATION                  XL03034
SMF8LENN DC    2BL1'0'   LENGTH OF FIELD
*        FOR EACH DEVICE ONLINE THERE IS A FOUR-BYTE ENTRY HAVING THE
*        FOLLOWING FORMAT:
SMF8IODV DS    0C        RESERVE FOUR BYTE AREA FOR EACH DEVICE
*              BYTE 0 - DEVICE CLASS
*                   1 - UNIT TYPE
*                   2 - CHANNEL ADDRESS
*                   3 - UNIT ADDRESS
         AGO   .CONTB                                           XL03034
.IFAS009 ANOP
         EJECT
* THIS RECORD IS WRITTEN WHEN A VARY ONLINE COMMAND IS PROCESSED.
* RECORD LENGTH IS VARIABLE.
*
         DS    0F        ALIGN TO FULL WORD BOUNDARY
SMFRCD9  EQU   *         HEADER SEGMENT
SMF9LEN  DS    BL2'0'    RECORD LENGTH
SMF9SEG  DS    BL2'0'    SEGMENT DESCRIPTOR
SMF9FLG  DC    BL1'0'    HEADER FLAG BYTE
SMF9RTY  DC    BL1'0'    RECORD TYPE 9
SMF9TME  DC    4BL1'0'   TOD USING FORMAT FROM TIME MACRO W/BIN. INTVL.
SMF9DTE  DC    PL4'0000' DATE IN PACKED DEC. FORM: OOYYDDDF
SMF9SID  DC    4CL1' '   SYSTEM IDENTIFICATION                  XL03034
SMF9LENN DC    2BL1'0'   LENGTH OF THE FIELD
SMF9DVAD DS    0C        DEVICES BEING ADDED TO THE I/O CONFIGURATION
*                        (VARIABLE,BINARY)
*        FOR EACH DEVICE BEING ADDED THERE IS A FOUR BYTE ENTRY HAVING
*        THE FOLLOWING FORMAT:
*                        BYTE 0-DEVICE CLASS
*                             1-UNIT TYPE
*                             2-CHANNEL ADDRESS
*                             3-UNIT ADDRESS
         AGO   .CONTB                                           XL03034
.IFAS010 ANOP
         EJECT
* THIS RECORD IS WRITTEN AFTER SUCCESSFUL ALLOCATION. RECORD LENGTH
* IS VARIABLE.
*
         DS    0F        ALIGN TO FULL WORD BOUNDARY
SMFRCD10 EQU   *         HEADER SEGMENT
SMF10LEN DS    BL2'0'    RECORD LENGTH
SMF10SEG DS    BL2'0'    SEGMENT DESCRIPTOR
SMF10FLG DC    BL1'0'    HEADER FLAG BYTE
SMF10RTY DC    BL1'0'    RECORD TYPE 10
SMF10TME DC    4BL1'0'   TOD USING FORMAT FROM TIME MACRO W/BIN. INTVL.
SMF10DTE DC    PL4'0000' DATE IN PACKED DEC. FORM: OOYYDDDF
SMF10SID DC    4CL1' '   SYSTEM IDENTIFICATION                  XL03034
SMF10JBN DC    8CL1' '   JOB NAME
SMF10RST DC    4BL1'0'   READER START TIME
SMF10RSD DC    PL4'0000' READER START DATE
SMF10UIF DC    8CL1' '   USER  IDENTIFICATION FIELD
SMF10LN  DC    2BL1'0'   LENGTH OF THE FIELD
SMF10DEV DS    0C        DEVICES BEING MADE AVAILABLE (VARIABLE)
*
*FOR EACH DEVICE THERE IS A   4 -BYTE ENTRY HAVING THE FOLLOWING FORMAT
*                        BYTE 0-DEVICE CLASS
*                             1-UNIT TYPE
*                             2-CHANNEL ADDRESS
*                             3-UNIT ADDRESS
         AGO   .CONTB                                           XL03034
.IFAS011 ANOP
         EJECT
* THIS RECORD IS WRITTEN WHEN A VARY OFFLINE COMMAND IS PROCESSED.
* RECORD LENGTH IS VARIABLE.
*
         DS    0F        ALIGN TO FULL WORD BOUNDARY
SMFRCD11 EQU   *         HEADER SEGMENT
SMF11LEN DS    BL2'0'    RECORD LENGTH
SMF11SEG DS    BL2'0'    SEGMENT DESCRIPTOR
SMF11FLG DC    BL1'0'    HEADER FLAG BYTE
SMF11RTY DC    BL1'0'    RECORD TYPE 11
SMF11TME DC    4BL1'0'   TOD USING FORMAT FROM TIME MACRO W/BIN. INTVL.
SMF11DTE DC    PL4'0000' DATE IN PACKED DEC. FORM: OOYYDDDF
SMF11SID DC    4CL1' '   SYSTEM IDENTIFICATION                  XL03034
SMF11LN  DC    2BL1'0'   LENGTH OF THE FIELD
SMF11DEV DS    0C        DEVICES BEING REMOVED FROM I/O CONFIGURATION
*
* FOR EACH DEVICE BEING REMOVED, THERE IS A 4-BYTE ENTRY HAVING THE
* FOLLOWING FORMAT:
*              BYTE O-DEVICE CLASS
*                   1-UNIT TYPE
*                   2-CHANNEL ADDRESS
*                   3-UNIT ADDRESS
         AGO   .CONTB                                           XL03034
.IFAS012 ANOP
         EJECT
* THIS RECORD IS WRITTEN WHEN THE HALT COMMAND IS PROCESSED. RECORD
* LENGTH IS 54 BYTES.
         DS    0F        ALIGN TO FULL WORD BOUNDARY
SMFRCD12 EQU   *         HEADER SEGMENT
SMF12LEN DS    BL2'0'    RECORD LENGTH
SMF12SEG DS    BL2'0'    SEGMENT DESCRIPTOR
SMF12FLG DC    BL1'0'    HEADER FLAG BYTE
SMF12RTY DC    BL1'0'    RECORD TYPE 12
SMF12TME DC    4BL1'0'   TOD, USING FORMAT FROM TIME MACRO W/BIN. INTVL
SMF12DTE DC    PL4'0000'      DATE IN PACKED DECIMAL FORM: 00YYDDDF
*                             ( F IS A SIGN)
SMF12SID DC    4CL1' '   SYSTEM IDENTIFICATION                  XL03034
SMF12SWT DC    4BL1'0'   SYSTEM WAIT TIME IN HUNDREDTHS OF SECONDS
*                        SINCE LAST TYPE1 RECORD
SMF12TEX DC    4BL1'0'   COLLECT END TIME
SMF12PGI DC    4BL1'0'   TOTAL PAGE-INS
SMF12PGO DC    4BL1'0'   TOTAL PAGE-OUTS
SMF12PGR DC    4BL1'0'   TOTAL PAGES RECLAIMED
         AGO   .CONTB                                           XL03034
.IFAS013 ANOP
         EJECT
* THIS RECORD IS WRITTEN WHEN DYNAMIC STORAGE CONFIGURATION TAKES PLACE
* IN OPTION 1. RECORD LENGTH IS VARIABLE
         DS    0F        ALIGN TO FULL WORD BOUNDRY
SMFRCD13 EQU   *         HEADER SEGMENT
SMF13LEN DS    BL2'0'    RECORD LENGTH
SMF13SEG DS    BL2'0'    SEGMENT DESCRIPTOR
SMF13FLG DC    BL1'0'    HEADER FLAG BYTE
SMF13RTY DC    BL1'0'    RECORD TYPE 13
SMF13TME DC    4BL1'0'   TOD, USING FORMAT FROM TIME MACRO W/BIN. INTVL
SMF13DTE DC    PL4'0000' DATE IN PACKED DECIMAL FORM: 00YYDDDF
*                        ( F IS A SIGN )
SMF13SID DC    4CL1' '   SYSTEM ID                              XL03034
SMF13LTH DC    2BL1'0'   LENGTH OF PARTITION SECTION
* THE FOLLOWING 22 BYTE SECTION IS PRODUCED FOR EACH PARTITION ACTIVE
* WHEN DYNAMIC STORAGE CONFIGURATION TOOK PLACE.
SMF13PN  DC    BL1'0'    PARTITION NUMBER
SMF13SH0 DC    2BL1'0'   HEIRARCHY 0 STORAGE
         DC    2BL1'0'   RESERVED
SMF13NJC DC    BL1'0'    NO OF JOB CLASSES
SMF13JC  DC    16CL1' '  JOB CLASSES FOR THIS PARTITION
         ORG   SMF13PN
         AGO   .CONTB                                           XL03034
.IFAS014 ANOP
         EJECT
* RECORD TYPE: 14- DATA SET OPENED FOR INPUT/RDBACK
*              15-DATA SET OPENED FOR OUTPUT/INOUT/OUTIN/UPDAT
         DS    0F        ALIGN TO FULL WORD BOUNDARY
SMF14HDR EQU   *         HEADER SEGMENT FOR RECORD TYPE 14/15
SMF14LEN DS    BL2'0'    RECORD LENGTH
SMF14SEG DS    BL2'0'    SEGMENT DESCRIPTOR
SMF14FLG DS    BL1'0'    HEADER FLAG BYTE
SMF14RTY DS    BL1'0'    RECORD TYPE 14
SMF14TME DS    BL4'0'    TOD, USING TIME MACRO W/BIN. INTVL.
SMF14DTE DS    PL4'0000' DATE, PACKED/DEC FORM; 00YYDDDF
SMF14SID DS    CL4' '    SYSTEM ID                              XL03034
SMF14JBN DS    CL8' '    JOB NAME
SMF14RST DS    BL4'0'    READER START TIME
SMF14RSD DS    PL4'0000' READER START DATE, PK/DEC FORM: 00YYDDDF
SMF14UID DS    CL8' '    USERID
SMF14RIN DS    BL2'0'    RECORD INDICATORS:
SMF14RV0 EQU   128       RESERVED
SMF14EOV EQU   64        RECORD WRITTEN BY EOV
SMF14DAD EQU   32        DASD DEVICE
SMF14TDS EQU   16        TEMPORARY DATA SET
SMF14DDA EQU   8         DCBDSORG = DA
SMF14IS  EQU   4         DCBDSORG = IS
SMF14JIS EQU   2         JFCDSORG = IS
*        BITS 7 - 15     RESERVED
SMF14SDC DS    BL1'0'    SIZE OF DCB/DEB SEGMENT
SMF14NUC DS    BL1'0'    NO. UCB SEGMENTS
SMF14SUC DS    BL1'0'    SIZE OF EACH UCB SEGMENT
SMF14SET DS    BL1'0'    SIZE OF EXTENSION SEGMENT
SMF14RV1 DS    BL4'0'    RESERVED
SMFTIOT  EQU   *         TIOT SEGMENT (FROM DD ENTRY)
SMFTIOE1 DS    BL1'0'    TIOELNGH
SMFTIOE2 DS    BL1'0'    TIOESSTA
SMFTIOE3 DS    BL1'0'    TIOEWTCT
SMFTIOE4 DS    BL1'0'    TIOELINK
SMFTIOE5 DS    BL8'0'    TIOEDDNM
SMFTIOE6 DS    BL3'0'    TIOEJFCB
SMFTIOE7 DS    BL1'0'    TIOESTTC
*
SMFJFCB1 DS    XL176'0'  JFCB SEGMENT (ENTIRE JFCB)
*
SMFDCBDE EQU   *         DCB/DEB SEGMENT (TAPE AND DASD)
SMFDCBOR DS    BL2'0'    DCBDSORG
SMFDCBRF DS    BL1'0'    DCBRECFM
SMFDCBMF DS    BL2'0'    DCBMACRF
SMFDCBFL DS    BL1'0'    DCBOFLGS
SMFDCBOP DS    BL1'0'    DCBOPTCD
SMF14RV2 DS    BL1'0'    RESERVED
SMFDEBFL DS    BL1'0'    DEBOFLGS
SMFDEBOP DS    BL1'0'    DEBOPATB
SMFDEBVL DS    BL2'0'    DEBVOLSQ
SMFTDDEX EQU   *         TAPE DCB/DEB EXTENSION
SMFDCBBL DS    BL4'0'    DCBBLKCT
SMFDSSNO DS    BL6'0'    DATA SET SERIAL NUMBER
SMF14RV3 DS    BL2'0'    RESERVED
         ORG   SMFTDDEX
SMF14NTU DS    BL4'0'    NUMBER OF TRACKS USED(LAST TTR-FROM DCBFDAD)
SMF14NTR DS    BL4'0'    NUMBER OF TRACKS RELEASED BY DADSM RELSE RTN
SMF14NER DS    BL1'0'    NUMBER OF EXTENTS RELEASED
SMF14RV4 DS    BL3'0'    RESERVED
SMF14UCB EQU   *         UCB SEGMENT(ONE FOR EACH UCB FOR THE DATA SET)
SMFUCBCH DS    BL1'0'    UCBCHA
SMFUCBUA DS    BL1'0'    UCBUA
SMFSRTEV DS    BL6'0'    SRTEVOLI
SMFUCBTY DS    BL4'0'    UCBTYP
SMFSRTES DS    BL1'0'    SRTESTAB
SMF14NEX DS    BL1'0'    NUMBER EXTENTS
SMF14RV5 DS    BL2'0'    RESERVED
SMFEXCP  DS    BL4'0'    EXCP COUNT
SMFTAPEX EQU   *         SMF TAPE EXTENSION
*        THIS SECTION DESCRIBES THE TAPE EXTENSION SEGMENT
SMFSRTEF DS    BL2'0'    SRTEFSCT
SMFSRTEQ DS    BL2'0'    SRTEFSEQ
         ORG   SMFTAPEX
*        THIS SECTION DESCRIBES THE DASD EXTENSION SEGMENT
SMF14NTA DS    BL4'0'    NUMBER TRACKS ALLOCATED
SMF14UCE EQU   *              UCB SEGMENT END
         ORG   SMF14UCB
*
SMFISAMX EQU   *         ISAM EXTENSION SEG.(FOR DCBDSORG = IS)
SMF14RV6 DS    BL2'0'    RESERVED
SMFDCBMA DS    BL1'0'    DCBMAC
SMFDCBNL DS    BL1'0'    DCBNLEV
SMFDCBR3 DS    BL4'0'    DCBRORG3
SMFDCBNR DS    BL4'0'    DCBNREC
SMFDCBR2 DS    BL2'0'    DCBRORG2