         MACRO
&NAME    GADEOJ
         GADTEST
         PUSH  PRINT
         PRINT OFF
         COPY GADGLOBL
&NAME    NOP   0
         AIF   (NOT &GADB(4)).YR  NOT NO
.EO1     ANOP
         AIF   ('&SYSLIST(1)' EQ 'R15').EO2   RETURN CODE GIVEN
         SR    R15,R15  RETURN CODE ZERO
.EO2     ANOP
         ST    R15,XF10(R13)  STORE RETURN CODE
         LM    R14,R12,XF0C(R13)  RESTORE REGISTERS
         BR    R14  RETURN
         POP   PRINT
.EO3     ANOP
&GADB(2) SETB  0
&GADB(3) SETB  0
&GADB(4) SETB  0
         MEXIT
.YR      ANOP
         L     R13,XF04(R13)  OLD SAVEA POINTER
         AIF   (&GADB(2)).EO1  IF YES
         AIF   (NOT &GADB(3)).ER2  NOT RENT
         L     R1,XF08(R13)  SAVE AREA TO BE FREED
         LR    R2,R15  SAVE RETURN CODE
         FREEMAIN R,LV=72,A=(1)
         LR    R15,R2  REPRIME CODE
         AGO   .EO1
.ER2     ANOP
         POP   PRINT
         MNOTE 16,'NO GADBEGIN MACRO'
         AGO   .EO3
         MEND
