         MACRO
&NAME    MACTIOT
&NAME    L     1,16                    CVT-ADRESSE
         L     1,0(1)                  TCB-LISTE
         L     1,4(1)                  TCB-ADRESSE
         L     1,12(1)                 TIOT-ADRESSE
         MEND
