         MACRO
&NAME    MACDCBDD &DCBADR
.**********************************************************************
.*                                                                    *
.*       DIESES MACRO LIEFERT IM REGISTER 1 DIE ADRESSE DES ZU
.*       EINEM NOCH NICHT EREOFFNETEN DCB GEHOERIGEN DD-ENTRIES.      *
.*       IST KEIN ENTSPRECHENDER DD-ENTRY VORHANDEN, D.H. DIE         *
.*       DD-KARTE FUER DEN DCB FEHLT, DANN IST REGISTER 1 = 0.        *
.*                                                                    *
.**********************************************************************
         LCLC  &C
         AIF   ('&DCBADR' EQ '').ERROR
&C       SETC  '&SYSNDX'
&NAME    STM   15,0,MAC&C.2     REGISTER SICHERN
         AIF   ('&DCBADR'(1,1) EQ '(').MAC2
         LA    15,&DCBADR           DCB-ADRESSE
.MAC1    SR    0,0
         MACTIOT
         LA    1,24(1)                 1.DD-ENTRY
MAC&C.1  IC    0,0(1)                  LAENGE DES DD-ENTRIES
         LTR   0,0                     LETZTER DD-ENTRY
         BZ    MAC&C.3
         CLC   4(8,1),40(15)            DD-NAMEN VERGLEICH TIOT-DCB
         BE    MAC&C.4
         AR    1,0                     NAECHSTER DD-ENTRY
         B     MAC&C.1
MAC&C.2  DC    2F'0'
MAC&C.3  SR    1,1
MAC&C.4  LM    15,0,MAC&C.2            REGISTER WIEDERHERSTELLEN
         MEXIT
.MAC2    LR    15,&DCBADR(1)           DCB-ADRESSE
         AGO   .MAC1
.ERROR   MACMES 2,MACDCBDD
         MEND
