         MACRO
&NAME    MPLISTRT &BASIS=11
         LCLA  &A1,&ANZ,&SZ,&BREG(11)
         LCLB  &BZ(11)
         LCLC  &CR1,&CR2,&CR3,&R(10)
&A1      SETA  K'&BASIS
         AIF   (&A1 EQ 0).OHNE
&ANZ     SETA  N'&BASIS
         AIF   (&ANZ EQ 0).OHNE
         AIF   (&ANZ GT 16).DOPPELT
&SZ      SETA  1
.LOOP    ANOP
&A1      SETA  &BASIS(&SZ)
         AIF   (&A1 GT 11).FBASIS
         AIF   (&A1 LT 2).FBASIS
         AIF   (&A1 EQ 4).FBASIS
         AIF   (&BZ(&A1)).DOPPELT
&BZ(&A1) SETB  (1)
&BREG(&SZ) SETA &A1
&R(&SZ)  SETC  ','.'&A1'
         AIF   (&ANZ EQ &SZ).WEITER
&SZ      SETA  &SZ+1
         AGO   .LOOP
.FBASIS  MNOTE 'BASISREGISTER FALSCH'
.FEHLER  MNOTE 'KEINE GENERIERUNG'
         MEXIT
.DOPPELT MNOTE 'BASISREGISTER MEHRFACH'
         AGO   .FEHLER
.OHNE    ANOP
&BREG(1) SETA  11
&ANZ     SETA  1
.WEITER  ANOP
&NAME    START 0
         USING *,15
         B     *+12
         DC    AL1(7)
         DC    CL7'&NAME'
         STM   14,11,12(13)
         DROP  15
&CR1     SETC  '&BREG(1)'
         BALR  &CR1,0
         USING *&R(1)&R(2)&R(3)&R(4)&R(5)&R(6)&R(7)&R(8)&R(9)&R(10)
         ST    13,SAV&SYSNDX+4
         LA    4,SAV&SYSNDX
         LA    13,SAV&SYSNDX
         B     SAV&SYSNDX+4*20
SAV&SYSNDX DC  20F'0'
         AIF   (&ANZ EQ 1).ENDE
&CR3     SETC  '&BREG(&ANZ)'
         LA    &CR3,2048
&SZ      SETA  2
.GEN     AIF   (&BREG(&SZ) EQ 0).ENDE
&CR1     SETC  '&BREG(&SZ)'
&CR2     SETC  '&BREG(&SZ-1)'
         LA    &CR1,2048(&CR2,&CR3)
&SZ      SETA  &SZ+1
         AGO   .GEN
.ENDE    ANOP
         MEND
