         MACRO
&NAME    MPLIEND
&NAME    L     13,4(13)
         LM    14,11,12(13)
         BR    14
         MEND
