MEMBER NAME  EXOUT
         MACRO
&NAME    EXOUT &ID=
         GBLA  &ASAVE(3)
         GBLC  &ASAREA
         LCLA  &RCR,&Z
.* DIESES MACRO IST DAS GEGENSTUECK ZU -EXIN-. ES LAEDT DIE REGISTER-
.* INHALTE ZURUECK UND VERZWEIGT ZUR ADRESSE IN REG.14.
.* ERSTELLT: FEBRUAR 1969  - P.MERTENS/E.LANGE -.
.*
         AIF   (&ASAVE(3) EQ 0).A00
         MNOTE 16,'*** SIEHE EXIN MACRO ***'
         MEXIT
.A00     ANOP
         AIF   ('&NAME' EQ '').A01
&NAME    EQU   *
.A01     ANOP
         AIF   ('&ID' EQ '').A04
&Z       SETA  1
         AIF   ('&ID'(1,1) EQ '(').A02
         AIF   (T'&ID EQ 'F').A03
         LA    15,&ID
         AGO   .A04
.A02     ANOP
         LR    15,&ID(1)
         AGO   .A04
.A03     ANOP
         L     15,&ID
.A04     ANOP
         AIF   ('&ASAREA' EQ '').A05
         AIF   ('&ASAREA' EQ '0').A06
         L     13,&ASAREA.+4
         AGO   .A08
.A05     ANOP
         L     13,CSBASREG+4
         AGO   .A08
.A06     ANOP
         L     13,CSBASR13
         AIF   (&Z EQ 1).A07
         LM    14,13,0(13)
         AGO   .AENDE
.A07     ANOP
         L     14,0(13)
         LM    0,13,8(13)
         AGO   .AENDE
.A08     ANOP
&RCR     SETA  &ASAVE(1)*4+20
         AIF   (&ASAVE(1) LE &ASAVE(2)).A15
         AIF   (&RCR LE 70).A11
&RCR     SETA  &RCR-64
         AIF   (&Z EQ 1).A09
         LM    &ASAVE(1),&ASAVE(2),&RCR.(13)
         AGO   .AENDE
.A09     ANOP
         LM    0,&ASAVE(2),20(13)
         AIF   (&ASAVE(1) EQ 14).A10
         AGO   .AENDE
.A10     ANOP
         L     14,12(13)
         AGO   .AENDE
.A11     ANOP
         AIF   (&ASAVE(1) NE 12).A110
         L     12,&RCR.(13)
         AGO   .A111
.A110    ANOP
         LM    &ASAVE(1),12,&RCR.(13)
.A111    ANOP
         AIF   (&Z EQ 1).A12
         LM    14,&ASAVE(2),12(13)
         AGO   .AENDE
.A12     ANOP
         AIF   (&ASAVE(2) EQ 0).A14
         LM    0,&ASAVE(2),20(13)
.A13     ANOP
         L     14,12(13)
         AGO   .AENDE
.A14     ANOP
         L     0,20(13)
         AGO   .A13
.A15     ANOP
         AIF   (&ASAVE(2) EQ 16).A18
         AIF   (&ASAVE(1) NE 12).A150
         L     12,68(13)
         AGO   .A16
.A150    ANOP
         LM    &ASAVE(1),&ASAVE(2),&RCR.(13)
.A16     ANOP
         AIF   (&Z EQ 1).A17
         LM    14,1,12(13)
         AGO   .AENDE
.A17     ANOP
         LM    0,1,20(13)
         AGO   .A10
.A18     ANOP
         L     &ASAVE(1),&RCR.(13)
         AGO   .A16
.AENDE   ANOP
         BR    14
         MEND
         END





