MQUE02   ASSEMBLER MACRO REGDEF: REGISTERDEFINITION
         MACRO
&NAME    REGDEF &OP
         LCLC  &ZZ
&ZZ      SETC  '&OP'
         AIF   ('&OP' EQ '').ERROR
&ZZ.0    EQU   0
&ZZ.1    EQU   1
&ZZ.2    EQU   2
&ZZ.3    EQU   3
&ZZ.4    EQU   4
&ZZ.5    EQU   5
&ZZ.6    EQU   6
&ZZ.7    EQU   7
&ZZ.8    EQU   8
&ZZ.9    EQU   9
&ZZ.10   EQU   10
&ZZ.11   EQU   11
&ZZ.12   EQU   12
&ZZ.13   EQU   13
&ZZ.14   EQU   14
&ZZ.15   EQU   15
         AGO   .END
.ERROR   ANOP
         MNOTE 12,'NO PARAMETER CODED'
         MEXIT
.END     ANOP
         MEND
