MQUE03   ASSEMBLER MACRO PARMPROG: PARAMETERUEBERNAHME
         MACRO
&NAME  PARMPROG &FELD
*
* UEBERNAHME DER PARAMETER AUS ANWENDUNGS-PROGRAMM
*
&NAME    L     1,0(1)        ADRESSE PARAMETER NACH REGISTER
         ST    1,B&SYSNDX    REGISTER RETTEN
         LH    1,0(1)        FUER LAENGENZAEHLER
         LTR   1,1                     PARAMETER VORHANDEN?
         BZ    B&SYSNDX+4              NEIN
         BCTR  1,0           LAENGENZAEHLER - 1 = LAENGENCODE
         STC   1,A&SYSNDX+1  LAENGENCODE INS MVC
         L     1,B&SYSNDX    PARAMETERADRESSE LADEN
A&SYSNDX MVC   &FELD,2(1)     UEBERTRAGEN DES PARAMETERS
         B     B&SYSNDX+4
*
B&SYSNDX DS    F             ZWISCHENSPEICHER FUER REGISTER
*
         MEND
