./ADD NAME=MACRORTN
               MACRO
&NAME MACRORTN &RC=
               LCLC &TRC   DEFINIERT DEN TYP VON &RC
&TRC           SETC  T'&RC DAMIT AUF FEHLEN VON RC= GEPRUEFT WERDEN
.*                         KANN
&NAME L     13,4(13) ALTE SAVEAREA-ADRESSE BEREITSTELLEN
               AIF ('&TRC' EQ 'O').M1
               RETURN (14,12),RC=&RC
               AGO .M2
.M1            RETURN (14,12)
.M2      MNOTE *,'MACRORTN GENERIERT'
               MEND
