*          DATA SET HD122650T  AT LEVEL 002 AS OF 05/04/76
         PRINT OFF
         MACRO
&LABEL   PROG  &BYTES
         GBLA  &SCHALT
         LCLA  &REGANZ,&REGEND
         LCLC  &NAME
         PRINT NOGEN
*                                                                     *
*        BASISADRESSIERUNG - OS                                       *
*                                                                     *
         AIF   (N'&LABEL EQ 1).P01
         MNOTE 4,'CSECT-NAME FEHLT, ''CSECT1'' WIRD ANGENOMMEN'
&NAME    SETC  'CESECT1'
CSECT1   CSECT
         AGO   .P02
.P01     ANOP
&NAME    SETC  '&LABEL'
&NAME    CSECT
.P02     AIF   (N'&BYTES NE 0).P03
         MNOTE *,'PROGRAMMGROESSE FEHLT, 4096 BYTES WIRD ANGENOMMEN'
&REGANZ  SETA  1
         AGO   .P04
.P03     ANOP
&REGANZ  SETA  (&BYTES/4096)+1
.P04     ANOP
         AIF   (&REGANZ LE 10).P05
         MNOTE *,PROGRAMMGROESSE WIRD AUF 4096 BYTES GEKUERZT'
&REGANZ  SETA  10
.P05     ANOP
&REGEND  SETA  &REGANZ+2
.*
&NAME    SETC  '$@#'.'&SYSNDX'
         SAVE  (14,12)
         BALR  R3,0
         USING *,R3
         ST    R13,&NAME.3+4
         LR    R0,R2
         LR    R2,R13
         LA    R13,&NAME.3
         ST    R13,8(R2)
         LR    R2,R0
         AIF   (&REGANZ EQ 1).P10
         LM    R3,R&REGEND,&NAME.2    LADEN BAEISADRESSKONSTANTEN
         USING &NAME.1,R3             USING-ANWEISUNGEN
         USING &NAME.1+4096,R4
         AIF   (&REGANZ EQ 2).P10
         USING &NAME.1+8192,R5
         AIF   (&REGANZ EQ 3).P10
         USING &NAME.1+12288,R6
         AIF   (&REGANZ EQ 4).P10
         USING &NAME.1+16384,R7
         AIF   (&REGANZ EQ 5).P10
         USING &NAME.1+20480,R8
         AIF   (&REGANZ EQ 6).P10
         USING &NAME.1+24576,R9
         AIF   (&REGANZ EQ 7).P10
         USING &NAME.1+28672,R10
         AIF   (&REGANZ EQ 8).P10
         USING &NAME.1+32768,R11
         AIF   (&REGANZ EQ 9).P10
         USING &NAME.1+36864,R12
.P10     ANOP
         B     &NAME.1
&NAME.3  DC    18F'0'
         AIF   (&SCHALT EQ 1).P10A
&SCHALT  SETA  1
R0       EQU   0
R1       EQU   1
R2       EQU   2
R3       EQU   3
R4       EQU   4
R5       EQU   5
R6       EQU   6
R7       EQU   7
R8       EQU   8
R9       EQU   9
R10      EQU   10
R11      EQU   11
R12      EQU   12
R13      EQU   13
R14      EQU   14
R15      EQU   15
.P10A    AIF   (&REGANZ EQ 1).P11
&NAME.2  DC    A(&NAME.1)
         DC    A(&NAME.1+4096)
         AIF   (&REGANZ EQ 2).P11
         DC    A(&NAME.1+8192)
         AIF   (&REGANZ EQ 3).P11
         DC    A(&NAME.1+12288)
         AIF   (&REGANZ EQ 4).P11
         DC    A(&NAME.1+16384)
         AIF   (&REGANZ EQ 5).P11
         DC    A(&NAME.1+20480)
         AIF   (&REGANZ EQ 6).P11
         DC    A(&NAME.1+24576)
         AIF   (&REGANZ EQ 7).P11
         DC    A(&NAME.1+28672)
         AIF   (&REGANZ EQ 8).P11
         DC    A(&NAME.1+32768)
         AIF   (&REGANZ EQ 9).P11
         DC    A(&NAME.1+36864)
.P11     ANOP
&NAME.1  EQU   *
         MEND
         PRINT ON
*          DATA SET HD122610T  AT LEVEL 026 AS OF 05/04/76
         TITLE 'UHDV010S   H D V  -  STANDARD SICHERUNGS- UND REORGANIS*
               ATIONS-PROGRAMM'
***********************************************************************
***********************************************************************
****           C O P Y R I G H T                                   ****
****           HAMBURGER DATENVERARBEITUNGS G.M.B.H                ****
****           Z.HD. HERRN HUETTEL                                 ****
****           ALTER WALL 12                                       ****
****                                                               ****
****           2000 HAMBURG 11                                     ****
****           TELEFON  040 - 37 00 5-223                          ****
****                                                               ****
****           DIE GEWERBLICHE NUTZUNG DIESES PROGRAMMS DURCH      ****
****           VERKAUF ODER VERMIETUNG IST VERBOTEN                ****
****                                                               ****
****           EINE HAFTUNG FUER DIESES PROGRAMM SEITENS DER       ****
****           HDV BESTEHT NICHT                                   ***
****                                                               ***
****                                                               ***
***********************************************************************
***********************************************************************
         EJECT
********       H D 1 2 2 0 0 0                                 ********
*                                                                     *
*        H D V    STANDARD  SICHERUNGS- UND REORGANISATIONSPROGRAMM   *
*                                                                     *
*                                                                     *
*              FUNKTIONEN                                             *
*                                                                     *
*              KOPIEREN VON SEQUENTIELLEN DATEIEN                     *
*                       AUF EINE BIS NEUN SEQUENTIELLE DATEIEN        *
*                                                                     *
*              KOPIEREN VON I S A M - DATEIEN                         *
*                       AUF EINE BIS NEUN ISAM-DATEIEN                *
*                                                                     *
*              KOPIEREN VON SEQUENTIELLEN DATEIEN                     *
*                       AUF ISAM-DATEIEN (REORGANISATION)             *
*                       UND SEQUENTIELLE DATEIEN                      *
*                                                                     *
*              KOPIEREN VON I S A M - DATEIEN                         *
*                       AUF SEQUENTIELLE DATEIEN (SICHERUNG)          *
*                       UND ISAM-DATEIEN                              *
*                                                                     *
*              SCHREIBEN VON CHECKPOINTS NACH DEM EROEFFNEN           *
*                       EINER AUSGABE-DATEI                           *
*                       ZWINGEND BEI  DISP=MOD AUSGABE                *
*                                                                     *
*              SCHREIBEN VON EOF-SAETZEN AUF SEQUENTIELLE             *
*                       EINGABEDATEIEN                                *
*                       N A C H  ERFOLGTEM FORTSCHREIBEN AUF          *
*                       AUSGABE-DATEI(EN)                             *
*                                                                     *
*              AUSFUEHRLICHE PROTOKOLLIERUNG ALLER DATEI-SPEZIFISCHEN *
*                       INFORMATIONEN                                 *
*                       - DDNAME                                      *
*                       - DATA-SET-NAME                               *
*                       - ANZAHL SAETZE                               *
*                       - DATEI-ORGANISATION                          *
*                       - SATZFORMAT                                  *
*                       - SATZLAENGE                                  *
*                       - BLOCKLAENGE                                 *
*                       - DATEI-DISPOSITION                           *
*                       - ART DES DATEI-KENNSATZES                    *
*                       - ZEICHENDICHTE BEI MAGNETBAENDER             *
*                       - FILE-NUMMER BEI BAENDERN                    *
*                       - EINHEITEN-TYP                               *
*                       - ANZAHL DER DATENTRAEGER (VOLUMES)           *
*                       - NAMEN DER DATENTRAEGER (SERIAL-NUMMERN)     *
*                                                                     *
*              AUSFUEHRLICHE PROTOKOLLIERUNG DER DURCHGEFUEHRTEN      *
*                       AKTIONEN MIT UHRZEIT                          *
*                                                                     *
*              AUSFUEHRLICHE PRUEFUNG ALLER ANGABEN AUF LOGISCHE      *
*                       RICHTIGKEIT UND VOLLSTAENDIGKEIT              *
*                       V O R  BEGINN DER GESAMTEN VERARBEITUNG       *
*                                                                     *
*              AUSFUEHRLICHE FEHLERINTERPRETATION BZW. FEHLERANALYSE  *
*                       DURCH AUSSAGEKRAEFTIGE MELDUNGEN              *
*                                                                     *
*        *     STEUERUNG AUSSCHLIESSLICH      *                       *
*        *              DURCH                 *                       *
*        *     D D - S T A T E M E N T S      *                       *
*        *           D D N A M E              *                       *
*        *     K E I N E   VORLAUFKARTEN      *                       *
*                                                                     *
         EJECT
***                                                                 ***
***      J O B  -  C O N T R O L                                    ***
***                                                                 ***
*                                                                     *
*//STEPNAME  EXEC PGM=UHDV010S                                        *
*                                                                     *
*//PROT      DD   SYSOUT=A             PROTOKOLL                      *
*                                                                     *
*//CHKPT     DD   ....                 CHECKPOINT-DATEI, WENN         *
*                                      CHECKPOINTS ANGEFORDERT WERDEN *
*                                                                     *
         EJECT
***                                                                 ***
***      E I N - / A U S G A B E   D D - S T A T E M E N T          ***
*                                                                     *
***                     D  D  N  A  M  E                            ***
*                                                                     *
* //X X XX X X                                                        *
*   - - -- - -                                                        *
*   . . .  . ..KENNZEICHEN                                            *
*   . . .  ....ANZAHL KOPIEN BZW. KOPIE-NUMMER                        *
*   . . .......REFERENZ-NUMMER                                        *
*   . .........DATEI-ORGANISATION                                     *
*   ...........EIN-/AUSGABE                                           *
*                                                                     *
* DDNAME STELLE 1  -  EIN-/AUSGABE                                    *
*                                                                     *
*              I = EINGABE-DATEI                                      *
*              O = AUSGABE-DATEI                                      *
*                                                                     *
** DDNAME STELLE 2  -  DATEI-ORGANISATION                             *
*                                                                     *
**             I = INDEXED SEQUENTIELL (ISAM)                         *
*              P = PHYSISCH SEQUENTIELL (QSAM)                        *
*                                                                     *
* DDNAME STELLE 3+4  -  REFERENZ-NUMMER                               *
*                                                                     *
*              DIESE REFERNZ-NUMMER STELLT DIE LOGISCHE VERBINDUNG    *
*                   ZWISCHEN EINEM EINGABE-DD-STATEMENT               *
*                   UND EINEM ODER MEHREREN AUSGABE-DD-STATEMENTS     *
*                   HER.                                              *
*                                                                     *
* DDNAME STELLE 5  -  ANZAHL KOPIEN BZW. KOPIE-NUMMER                 *
*                                                                     *
*              BEI EINGABE-DD-STATEMENT                               *
*                  ANZAHL DER AUSGABE-DD-STATEMENTS MIT GLEICHER      *
*                  REFERNZ-NUMMER                                     *
*              BEI AUSGABE-DD-STATEMENTS                              *
*                  FORTLAUFENDE NUMMER INNERHALB GLEICHER REFERNZ-    *
*                  NUMMER                                             *
*                                                                     *
*              AUSNAHME:                                              *
*              0 BEI EINGABE-DD-STATEMENT                             *
*              UND                                                    *
*              E  IM KENNZEICHEN                                      *
*              BEWIRKT SCHREIBEN EINES EOF-SATZES                     *
*              O H N E                                                *
*              VORHERIGE FORTSCHREIBUNG DER EINGABE AUF EIN           *
*              AUSGABE-DD-STATEMENT                                   *
*                                                                     *
* DDNAME STELLE 6  -  KENNZEICHEN                                     *
*                                                                     *
*              BEI EINGABE-DD-STATEMENTS                              *
*              E                                                      *
*              BEWIRKT SCHREIBEN EINES EOF-SATZES NACH DER VERARBEITUNG
*              DER EINGABE-DATEI                                      *
*              BEI AUSGABE-DD-STATEMENTS                              *
*              C                                                      *
*              BEWIRKT DAS SCHREIBEN EINES CHECKPOINTS NACH DEM       *
*              EROEFFNEN DER AUSGABEDATEI.                            *
*              DIESE ANGABE IST ZWINGEND FUER AUSGABE-DATEIEN, DIE MIT*
*              DISP=MOD FORTGESCHREIBEN WERDEN SOLLEN.                *
*              BEI CHECKPOINT-ANFORDERUNG IST DAS DD-STATEMENTS       *
**             //CHKPT   DD  ....                                     *
*              ERFORDERLICH                                           *
*                                                                     *
         EJECT
**                                                                  ***
**             B E I S P I E L E                                    ***
**                                                                  ***
*                                                                     *
*        01    SICHERUNG ISAM-DATEI                                   *
*                                                                     *
*//II011    DD ..ISAM-DATEI                                           *
*//OP011    DD ..SICHERUNGSBAND                                       *
*                                                                     *
*        02    REORGANISATION ISAM-DATEI                              *
*                                                                     *
**//IP021   DD ..SICHERUNGSBAND                                       *
*//OI021    DD ..ISAM-DATEI                                           *
*                                                                     *
*        03    KOPIEREN SEQ DATEI AUF 2 ANDERE SEQ.DATEIEN            *
*                                                                     *
*//IO032    DD ..EINGABE-DATEI                                        *
*//OP031    DD ..AUSGABE-DATEI 1                                      *
**//OP032   DD ..AUSGABE-DATEI 2                                      *
*                                                                     *
*        04    SICHERUNG ISAM-DATEI UND GLEICHZEITIGES KOPIEREN       *
*                                                                     *
*//II042    DD ..ISAM-EINGABE                                         *
*//OP041    DD ..SICHERUNGSBAND                                       *
*//OI042    DD ..ISAM-AUSGABE                                         *
*                                                                     *
*        05    FORTSCHREIBEN EINER SEQUENTIELLEN DATEI                *
*                                                                     *
*//IP051    DD ..EINGABE-DATEI                                        *
*//OP051C   DD ..AUSGABE-DATEI   DISP=MOD                             *
*                                                                     *
*        06    FORTSCHREIBEN SEQ.DATEI MIT ANSCHL.LOESCHUNG-EOF-EINGABE
*                                                                     *
*//IP061E   DD ..EINGABE-DATEI                                        *
*//OP061C   DD ..AUSGABE-DATEI   DISP=MOD                             *
*                                                                     *
         EJECT
UHDV010S PROG  10000
*                                                                     *
*              ADDRESSABILITY OF DUMMY-SECTIONS                       *
*                                                                     *
         USING IHADCB,R11
         USING DDDSECT,R10
         USING JFCBDSCT,R12
*                                                                     *
*              GET TIOT-ADDR AND DATE/TIME                            *
*              CHECK DCB-PROT                                         *
*              TERMINATE, IF PROT-DCB NOT OPERATIONAL                 *
*                                                                     *
A01      EQU   *
         BAL   R15,X01                 U.P. EXTRACT
         BAL   R15,X02                 U.P. DATE
         MVC   UEB1DATE,HDVDATED       DATE INTO TOP-MSG
         MVC   UEB1TIME,HDVDATET+1     TIME INTO TOP-MSG
         OPEN  (DCBPROT,(OUTPUT))      LOG-OPEN
         LA    R11,DCBPROT             ADDRESSABILITY IHADCB
         TM    DCBOFLGS,X'10'          OPEN SUCCESSFULL
         BO    A011                    YES
         MVC   MSG16TME,HDVDATET       TIME INTO MSG
         MVC   MSG16DDN,DCBDDNAM       DDNAME INTO MSG
         LA    R14,MSG16+1             MSG-ADDR INTO R14         MSG16
         BAL   R15,X03                 U.P. WTP
         MVC   MSG10TME,HDVDATET       TIME INTO MSG
         LA    R14,MSG10+1             MSG-ADDR.INTO R14         MSG10
         BAL   R15,X03                 U.P. WTP
         ABEND 4092
         EJECT
***                                                                 ***
***            SCAN TIOT                                            ***
***                                                                 ***
A011     EQU   *
         L     R12,TIOTADDR            LOAD TIOT-ADDR INTO R12
         LA    R12,24(R12)             OFFSET 24 = 1.DD-ENTRY OF TIOT
         XR    R11,R11                 DD-ENTRY LENGTH = R11
         LA    R10,DDTABLE             R10 = DD-TABLE ADDR.
A012     EQU   *
         CLC   =F'0',0(R12)            END OF TIOT
         BE    B01                     YES
         CLI   0(R10),X'FF'            END OF DD-TABLE
         BE    A991                    YES, ERRORMSG + ABEND
*                                                                     *
*              IGNORE   NOT-I/O-DD-STATEMENTS                         *
*                                                                     *
         CLC   =CL8' ',4(R12)          CONCATENATED DATASET
         BE    A99                     YES, IGNORE
         CLC   =CL8'SYSUDUMP',4(R12)   SYSUDUMP - DD-STMT.
         BE    A99                     YES, IGNORE
         CLC   =CL8'SYSABEND',4(R12)   SYSABEND - DD-STMT.
         BE    A99                     YES, IGNORE
         CLC   =CL8'SYSCHK',4(R12)     SYSCHCK - DD-STMT.
         BE    A97                     YES, LOG DSN,VOL
         CLC   =CL8'JOBLIB',4(R12)     JOBLIB - DD-STMT.
         BE    A97                     YES, LOG DSN,VOL
         CLC   =CL8'STEPLIB',4(R12)    STEPLIB - DD-STMT
         BE    A97                     YES, LOG DSN,VOL
         CLC   =CL8'PROT',4(R12)       PROT-DD-STMT
         BE    A99                     YES, IGNORE
         CLC   =CL8'CHKPT',4(R12)      CHKPT - DD-STMT
         BE    A96                     YES,SET IND.,LOG DSN, VOL
         CLC   =CL8'HDVREP',4(R12)     HDVREP -DD-STMT
         BE    A99                     YES, IGNORE
         CLC   =CL8'HDVCHECK',4(R12)   HDVCHECK - DD -STMT
         BE    A99                     YES, IGNORE
         CLI   4(R12),C'I'             INPUT - DD-STMT
         BE    A013                    YES
         CLI   4(R12),C'O'             OUTPUT - DD-STMT
         BE    A013                    YES
         MVC   MSG21DDN,4(R12)         DDNAME INTO MSG21
         LA    R14,MSG21               MSG21                     MSG21
         BAL   R15,X04                 U.P. MSG
         B     A99                     IGNORE DD-STMT
         EJECT
*                                                                     *
*              TEST SYNTAX OF I/O-DD-STATEMENTS                       *
*                                                                     *
A013     EQU   *
         CLI   5(R12),C'P'             QSAM DATASET
         BE    A014                    YES
         CLI   5(R12),C'I'             ISAM DATASET
         BE    A014                    YES
         MVC   MSG22DDN,4(R12)         DDNAME INTO MSG22         MSG22
         LA    R14,MSG22               MSG22
         BAL   R15,X04                 U.P.MSG
         B     A99                     IGNORE DD-STMT
A014     EQU   *
         CLC   6(2,R12),=C'01'         NUMERIC
         BL    A015                    NO
         CLC   6(2,R12),=C'99'         NUMERIC
         BNH   A016                    YES
A015     EQU   *
         MVC   MSG23DDN,4(R12)         DDNAME INTO MSG23         MSG23
         LA    R14,MSG23               MSG23
         BAL   R15,X04                 U.P. MSG
         B     A99                     IGNORE DD-STMT
A016     EQU   *
         CLI   8(R12),C'1'             NUMERIC
         BL    A017                    NO - BUT TEST 0E
         CLI   8(R12),C'9'             NUMERIC
         BH    A018                    NO
         B     A019                    YES
A017     EQU   *
         CLC   =C'0E',8(R12)           EOF-ONLY
         BE    A019                    YES
A018     EQU   *
         MVC   MSG24DDN,4(R12)         DDNAME INTO MSG24         MAG24
         LA    R14,MSG24               MSG24
         BAL   R15,X04                 U.P. MSG
         B     A99                     IGNORE DD-STMT
A019     EQU   *
         CLI   9(R12),C' '             BLANK IND.
         BE    A020                    O.K.
         CLI   9(R12),C'E'             EOF-IND.
         BE    A0191                   TEST - INPUT
         CLI   9(R12),C'C'             CHKPT-IND
         BE    A0192                   TEST - OUTPUT
         MVC   MSG25DDN,4(R12)         DDNAME INTO MSG25         MSG25
         LA    R14,MSG25               MSG25
         BAL   R15,X04                 U.P. MSG
         B     A99                     IGNORE DD-STMT
A0191    EQU   *
         CLI   4(R12),C'I'             INPUT -EOF
         BE    A020                    YES
         MVC   MSG26DDN,4(R12)         DDNAME INTO MSG26         MSG26
         LA    R14,MSG26               MSG26
         BAL   R15,X04                 U.P. MSG
         B     A99                     IGNORE DD-STMT
A0192    EQU   *
         CLI   4(R12),C'O'             OUTPUT-CHECKPOINT
         BE    A0193                   YES, TEST,IF CHKPT-DD-STMT
         MVC   MSG27DDN,4(R12)         DDNAME INTO MSG27         MSG27
         LA    R14,MSG27               MSG27
         BAL   R15,X04                 U.P. MSG
         B     A99                     IGNORE DD-STMT
A0193    EQU   *
         CLI   CHKPTIND,1              CHKPT-DD-STMT PRESENT
         BE    A020                    YES
         MVC   MSG34DDN,4(R12)         DDNAME INTO MSG
         LA    R14,MSG34               MSG34                    MSG34
         BAL   R15,X04                 U.P.MSG
         B     A99                     IGNORE DD-STMT
A020     EQU   *
         CLC   =CL2' ',10(R12)         POS.7+8 BLANK
         BE    A021                    YES
         MVC   MSG28DDN,4(R12)         DDNAME INTO MSG28         MSG28
         LA    R14,MSG28               MSG28
         BAL   R15,X04                 U.P. MSG
         B     A99                     IGNORE DD-STMT
A021     EQU   *
         MVC   DDN,4(R12)              MOVE DD-NAME INTO DDTABLE
         MVC   DDNSR,DDN+2             1.SORT=REF-NR
         MVC   DDNSI,DDN               2.SORT=I/O
         MVC   DDNSC,DDN+4             3.SORT=COPIES
         LA    R10,DDTABOFF(,R10)      NEXT DD-TABLE SEGMENT
         B     A99
*
*              CHKPT-DD-STMT
*
A96      EQU   *
         MVI   CHKPTIND,1              SET CHKPT-DD-STMT-INDICATOR
*                                                                     *
*              GET DSN + VOL OF OTHER DD-STATEMENTS                   *
*                                                                     *
A97      EQU   *
         LA    R11,DCBRJFCB            IHADCB - DSECT
         MVC   DCBDDNAM,4(R12)         DDNAME INTO DCB
         RDJFCB DCBRJFCB               READ  J F C B
         LR    R15,R12                 SAVE R12
         LA    R12,JFCBAREA            R12 = JFCB
         MVC   PROTDSN,JFCBDSNM        DSNAME
         MVC   PROTVOL,JFCBVOL1        VOLUME - SERIAL
         LR    R12,R15                 RESTORE R12
         XR    R11,R11
*
*              LOG OTHER DD - STATEMENTS                              *
*                                                                     *
A98      EQU   *
         MVC   PROTDDN,4(R12)          DD-NAME
         MVC   PROTAREA,PROTZEIL
         BAL   R15,X05                 U.P.PROT
*                                                                     *
*              CALCULATE NEXT TIOT-ENTRY                              *
*                                                                     *
A99      EQU   *
         IC    R11,0(R12)              DD-ENTRY LENGTH
         AR    R12,R11                 NEXT DD-ENTRY
         B     A012                    START TEST OF DD-ENTRY
A991     EQU   *
         LA    R14,MSG29               MSG
         BAL   R15,X04                 U.P. MSG                 MSG29
         MVI   ABEND,1                 SET ABEND - IND.
         B     B01                     IGNORE REST
         EJECT
***                                                                 ***
***            SORT DD-NAME TABLE IN MAINSTORAGE                    ***
***            CONTINUE LOGICALLY DD-NAME-TESTS                     ***
***                                                                 ***
B01      EQU   *
         MVC   PROTAREA+1(2),=C'- '
         MVC   PROTAREA+3(117),PROTAREA+1
         BAL   R15,X05                 U.P.PROT
         CALL  UHDV020S,PARSORT1       SORT TABLE
         LA    R10,DDTABLE-DDTABOFF    R10 = DD-TABLE START - 1 SEGM
         BAL   R15,B99                 NEXT SEGMENT
B02      EQU   *
         MVC   OLDDDN,DDN              NEWDDN = OLDDDN
B03      EQU   *
         CLI   DDN,C'I'                INPUT-DD-STMT
         BE    B04                     YES
         MVC   MSG13DDN,DDN            DDNAME INTO MSG
         LA    R14,MSG13               MSG13                     MSG13
         BAL   R15,X04                 1.P.MSG
         BAL   R15,B99                 NEXT SEGMENT
         B     B02
B04      EQU   *
         PACK  MAXCOPY,DDN+4(1)        PACK NO. OF COPIES
         ZAP   OUTCOPY,=P'0'           OUTPUT-DD-STMT COPY-NO.=0
B05      EQU   *
         BAL   R15,B99                 NEXT SEGMENT
         CLI   DDN,C'O'                OUTPUT-DD-STMT
         BNE   B08                     NO
         CLC   DDN+2(2),OLDDDN+2       REF-NR. EQ
         BNE   B08                     NO
B06      EQU   *
         AP    OUTCOPY,=P'1'           COPY-NO. + 1
         PACK  OUTCOPP,DDN+4(1)        PACK DD-STMT COPY-NO.
         CP    OUTCOPY,OUTCOPP         EQUAL
         BNE   B07                     NO
         BAL   R15,B99                 NEXT SEGMENT
         CLC   DDN+2(2),OLDDDN+2       REF-NR. EQUAL
         BE    B06                     YES
         CP    OUTCOPY,MAXCOPY         ALL OUTPUT-DD-STMTS
         BE    B02                     YES
         MVC   MSG12DDN,OLDDDN         DDNAME INTO MSG
         LA    R14,MSG12               MSG12                     MSG12
         BAL   R15,X04                 U.P.MSG
         B     B02
B07      EQU   *
         MVC   MSG12DDN,OLDDDN         DDNAME INTO MSG
         LA    R14,MSG12               MSG12                     MSG12
         BAL   R15,X04                 U.P.MSG
         B     B05
B08      EQU   *
         CLC   =C'0E',OLDDDN+4         EOF - ONLY
         BE    B09                     YES, WARNING
         MVC   MSG12DDN,OLDDDN         DDNAME INTO
         LA    R14,MSG12               MSG12                     MSG12
         BAL   R15,X04                 U.P.MSG
         B     B02
B09      EQU   *
         B     B02
B99      EQU   *
         LA    R10,DDTABOFF(,R10)      NEXT SEGMENT
         CLI   0(R10),X'00'            EMPTY
         BE    B99                     YES,NEXT SEGMENT
         CLI   0(R10),X'FF'            TABLE-END
         BNER  R15                     NO, RETURN
         CP    OUTCOPY,MAXCOPY         ALL OUTPUT-DD-STMTS
         BE    C01                     YES
         MVC   MSG12DDN,OLDDDN         DDNAME INTO MSG
         LA    R14,MSG12               MSG12                     MSG12
         BAL   R15,X04                 U.P.MSG