         MACRO
&NAME    EANF  &V,&CD=C,&LC=0,&BR=1,&SA=72,&EP=,&ID=,&REG=(14,12),     1
               &CT=
*
*   EANF    24.01.77
*
.*
.* V     REG. 15 WIRD ZUM LADEN DER BASISREG. BENUTZT
.* CD=   STANDARDWERT IST -S- WIE -START-
.*       ZULAESSIG AUCH -C- WIE -CSECT-
.* LC=   STANDARDWERT IST -0-, SETZT ZUORDNUNGSZAEHLER AUF 0
.*       NUR ZULAESSIG IN VERBINDUNG MIT -START-, SIEHE CD=
.* BR=   STANDARDWERT IST -1- WIE -EIN BASISREGISTER=BASIS1=R3-
.*       ZULAESSIG IST 0,1,2 ODER 3
.* SA=   STANDARDWERT IST -72-
.*       GIBT DIE LAENGE DER SAVEAREA AN
.* EP=   NAME DES EINGANGSPUNKTES. WENN ANGEGEBEN,SO WIRD
.*       ER MERKMAL DER SAVE-INSTUKTION IN DER MAKROAUFLOESUNG
.* ID=   IDENTIFIKATION, WIE BEIM SAVE-MACRO ANGEGEBEN WERDEN KANN
.* REG=  REGISTERNOTIERUNG, STANDARDWERT IST (14,12)
.*       WIE IM SAVE-MACRO ANGEGEBEN WERDEN KANN
.* CT=   T,
.*       WIE IM SAVE-MACRO ANGEGEBEN WERDEN KANN
.*
.* GLOBALE VARIABLE ZUM TEST GEGEN DOPPELDEFINITION DER REGISTER
         GBLB  &GLBIT   BETROFFEN SIND DIE EQU'S
         GBLA  &GLBR
         LCLA  &SETBR   ZUM TEST FUER BR=
         LCLA  &LECS
         LCLC  &CSET
         LCLA  &ASET
.*
         AIF   (T'&NAME EQ 'O').M1
.M2      AIF   ('&CD' EQ 'S').M3
         AIF   ('&CD' EQ 'C').M4
         MNOTE 4,'CD=  IST UNGUELTIG'
.M3      MNOTE *,'START GENERIERT'
&NAME    START &LC
         AGO   .M5
.M4      MNOTE *,'CSECT GENERIERT'
&NAME    CSECT
.M5      ANOP
         AIF   (&GLBIT).E1
*
*
*
         MNOTE *,'SYMBOLISCHE REGISTER GENERIERT'
*
R15      EQU   15  VERZWEIGREGISTER
R14      EQU   14  RUECKKEHRREGISTER
R13      EQU   13  REGISTER FUER DEN LAUFENDEN SICHERUNGSBEREICH
R12      EQU   12
R11      EQU   11
R10      EQU   10
R9       EQU   9
R8       EQU   8
R7       EQU   7
R6       EQU   6
R5       EQU   5
R4       EQU   4
R3       EQU   3
R2       EQU   2   BEI TRT-EINGABEDATENPRUEFUNG VERWENDET
R1       EQU   1   PARAMETERREGISTER
R0       EQU   0   PARAMETERREGISTER
*
*
.E1      AIF   ('&BR'(1,1) NE '(').E2
         AGO   .M22
.E2 ANOP
&SETBR   SETA  &BR
         AIF   (&GLBIT).M18
.M19     AIF   (&SETBR EQ 0).M6
         AIF   (&SETBR GE 1).M8
.M9      AIF   (&SETBR GE 2).M10
.M12     ANOP
         AIF   (&GLBR GT &SETBR).M22
&GLBR    SETA  &SETBR
.M22     ANOP
**
**
         USING *,R15
MACR&SYSNDX EQU *
&EP      SAVE  &REG,&CT,&ID
         LR    2,1
         AIF   (T'&EP EQ 'O').M13
         AIF   (T'&EP EQ 'SYSECT').M21
         ENTRY &EP
         MNOTE *,'ENTRY-EINGANGSPUNKT GENERIERT'
.M13        CNOP  0,4
            LA    1,*+8
            B     *+4+&SA
            DS    &SA.C
         ST    R13,4(R1)
         LR    R10,R13
         LA    R13,0(R1)
         ST    R13,8(R10)
         LR   1,2
         AIF   (&GLBIT).M17
*
* AUFBAU DER SAVEAREA
*
* WORT 0  NUR VON PL/1 VERWENDET
* WORT 1  A(SAVEAREA IM RUFENDEN PROGRAMM)
* WORT 2  A(SAVEAREA IM GERUFENEN PROGRAMM)
* WORT 3  R14
* WORT 4  R15
* WORT 5  R0         **BEI         R14
* WORT 6  R1         **ZUGRIFFS-   R15
* WORT 7  R2         **ROUTINEN    R0
* WORT 8  R3 BASIS1  **WERDEN      R1
* WORT 9  R4 BASIS2  **HIER        R2
* WORT 10 R5 BASIS3  **FOLGENDE    R3
* WORT 11 R6         **REGISTER    R4
* WORT 12 R7         **VON DER     R5
* WORT 13 R8         **ZUGRIFFS-   R6
* WORT 14 R9         **ROUTINE     R7
* WORT 15 R10        **GESPEICHERT R8
* WORT 16 R11
* WORT 17 R12
*
.M17     ANOP
         AIF   ('&BR'(1,1) NE '(').E5
&SETBR   SETA  N'&BR
         BALR  &BR(1),0
         USING *,&BR(1)
         AIF   (&SETBR EQ 1).M14
         AIF   (&SETBR GT 10).E4
.E3      ANOP
&LECS    SETA  2
&ASET    SETA  1
         LA    &BR(&SETBR),4095
         LA    &BR(&LECS),1(&BR(&ASET),&BR(&SETBR))
         AIF   (&LECS NE &SETBR).E11
 USING *+4096-&SETBR*4,&BR(2)
 AGO .M14
.E11  ANOP
&LECS    SETA  &LECS+1
&ASET    SETA  &ASET+1
         LA    &BR(&LECS),1(&BR(&ASET),&BR(&SETBR))
         AIF   (&LECS NE &SETBR).E12
 USING *+4096-&SETBR*4,&BR(2),&BR(3)
 AGO .M14
.E12  ANOP
&LECS    SETA  &LECS+1
&ASET    SETA  &ASET+1
         LA    &BR(&LECS),1(&BR(&ASET),&BR(&SETBR))
         AIF   (&LECS NE &SETBR).E13
 USING *+4096-&SETBR*4,&BR(2),&BR(3),&BR(4)
 AGO .M14
.E13  ANOP
&LECS    SETA  &LECS+1
&ASET    SETA  &ASET+1
         LA    &BR(&LECS),1(&BR(&ASET),&BR(&SETBR))
         AIF   (&LECS NE &SETBR).E14
 USING *+4096-&SETBR*4,&BR(2),&BR(3),&BR(4),&BR(5)
 AGO .M14
.E14  ANOP
&LECS    SETA  &LECS+1
&ASET    SETA  &ASET+1
         LA    &BR(&LECS),1(&BR(&ASET),&BR(&SETBR))
         AIF   (&LECS NE &SETBR).E15
 USING *+4096-&SETBR*4,&BR(2),&BR(3),&BR(4),&BR(5),&BR(6)
 AGO .M14
.E15  ANOP
&LECS    SETA  &LECS+1
&ASET    SETA  &ASET+1
         LA    &BR(&LECS),1(&BR(&ASET),&BR(&SETBR))
         AIF   (&LECS NE &SETBR).E16
 USING *+4096-&SETBR*4,&BR(2),&BR(3),&BR(4),&BR(5),&BR(6),&BR(7)
 AGO .M14
.E16  ANOP
&LECS    SETA  &LECS+1
&ASET    SETA  &ASET+1
         LA    &BR(&LECS),1(&BR(&ASET),&BR(&SETBR))
         AIF   (&LECS NE &SETBR).E17
 USING *+4096-&SETBR*4,&BR(2),&BR(3),&BR(4),&BR(5),&BR(6),&BR(7),&BR(8)
 AGO .M14
.E17  ANOP
&LECS    SETA  &LECS+1
&ASET    SETA  &ASET+1
         LA    &BR(&LECS),1(&BR(&ASET),&BR(&SETBR))
         AIF   (&LECS NE &SETBR).E18
 USING *+4096-&SETBR*4,&BR(2),&BR(3),&BR(4),&BR(5),&BR(6),&BR(7),&BR(8)*
               ,&BR(9)
 AGO .M14
.E18  ANOP
&LECS    SETA  &LECS+1
&ASET    SETA  &ASET+1
         LA    &BR(&LECS),1(&BR(&ASET),&BR(&SETBR))
         AIF   (&LECS NE &SETBR).E19
 USING *+4096-&SETBR*4,&BR(2),&BR(3),&BR(4),&BR(5),&BR(6),&BR(7),&BR(8)*
               ,&BR(9),&BR(10)
 AGO .M14
.E19  ANOP
         AGO   .M14
.E4      MNOTE 4,'MEHR ALS 10 BASISREGISTER ANGEGEBEN'
         MNOTE *,'10 BASISREGISTER WERDEN GENERIERT'
&SETBR   SETA  10
         AGO   .E3
.E5      AIF   (&SETBR EQ 0).M14
         AIF   ('&V' EQ 'V').M25
         BALR  BASIS1,0
         USING *,BASIS1
.M26     ANOP
         MNOTE *,'BASIS1 BEREITGESTELLT, GELADEN'
.M24     ANOP
         AIF   (&SETBR EQ 1).M14
         AIF   (&SETBR EQ 2).M15
         AIF   ('&V' EQ 'V').M27
         USING *+4096,BASIS2,BASIS3
.M28     ANOP
         LA    BASIS3,4095
         LA    BASIS2,1(BASIS1,BASIS3)
         LA    BASIS3,1(BASIS2,BASIS3)
         MNOTE *,'BASIS2 UND BASIS3 BEREITGESTELLT, GELADEN'
.M14     ANOP
&GLBIT   SETB  1
*
*
*   ENDE DES VORSPANNES
*
*
         MEXIT
.M15     AIF   ('&V' EQ 'V').M29
         USING *+4096,BASIS2
.M30     ANOP
         LA    BASIS2,4095
         LA    BASIS2,1(BASIS1,BASIS2)
         MNOTE *,'BASIS2 BEREITGESTELLT, GELADEN'
         AGO   .M14
.M18     AIF   (&GLBR GE &SETBR).M12
         AIF   (&GLBR EQ 0).M19
         AIF   (&GLBR EQ 1).M9
         AIF   (&GLBR EQ 2).M11
         AGO   .M20
.M1      MNOTE 12,'UNBENANNTE CONTROL-SECTION'
         AGO   .M2
.M6      MNOTE *,'KEINE BASISREGISTER GENERIERT'
         AGO   .M12
.M8      MNOTE *,'BASIS1 GENERIERT'
BASIS1   EQU   3   ** BASISREGISTER 1 **
         AGO   .M9
.M10     MNOTE *,'BASIS2 GENERIERT'
BASIS2   EQU   4   ** BASISREGISTER 2 **
         AIF   (&SETBR GE 3).M11
         AGO   .M12
.M11     MNOTE *,'BASIS3 GENERIERT'
BASIS3   EQU   5   ** BASISREGISTER 3 **
         AIF   (&SETBR EQ 3).M12
.M20     MNOTE 4,'BR=  ZU HOCH'
         AGO   .M12
.M21     MNOTE 4,'EP=  CSECT-NAME'
         AGO   .M13
.M25     USING MACR&SYSNDX,BASIS1
         LR    BASIS1,R15
         AGO   .M26
.M27     USING MACR&SYSNDX+4096,BASIS2,BASIS3
         AGO   .M28
.M29     USING MACR&SYSNDX+4096,BASIS2
         AGO   .M30
         MEND
         EJECT
         MACRO
&NAME    ERET  &REG=(14,12),&CT=,&RC=,&SA=72
*
*    ERET        24.01.77
*
.* RC=   RETURN-CODE,
.*       WIE IM RETURN-MACRO ANGEGEBEN WERDEN KANN
.* REG=  REGISTERNOTIERUNG, STANDARDWERT IST (14,12)
.*       WIE IM RETURN-MACRO ANGEGEBEN WERDEN KANN
.* CT=   T,
.*       WIE IM RETURN-MACRO ANGEGEBEN WERDEN KANN
.* SA=   LAENGE DER SAVEAREA, STANDARDWERT IST 72
         LCLC  &TRC  DEFINIERT DEN TYP VON &RC
&TRC     SETC  T'&RC  DAMIT AUF FEHLEN VON RC= GEPRUEFT WERDEN KANN
&NAME    LA    1,0(13)
         L     13,4(1)
         LR    1,2
         AIF   ('&REG' EQ 'NO').M3
         AIF   ('&TRC' EQ 'O').M1
         RETURN &REG,&CT,RC=&RC
         AGO   .M2
.M1      RETURN &REG,&CT
.M2      MNOTE *,'ERET GENERIERT'
         MEXIT
.M3      AIF   ('&TRC' EQ 'O').M4
         RETURN &CT,RC=&RC
         AGO   .M2
.M4      RETURN &CT
         AGO   .M2
         MEND
         EJECT
         TITLE 'SELECTIVE DISK COPY  - PHASE 2 -'
X001450   CSECT
         SAVE  (14,12)        SAVE REGISTERS
         BALR  R3,0           ESTABLISH ADDRESSABILITY
         USING *,3,4,5,9
NA0      EQU   *
         LM    R4,R5,KBAS
         L     R9,KBAS1
         B     NA1
KBAS     DC    A(NA0+4096,NA0+2*4096)
KBAS1    DC    A(NA0+3*4096)
NA1      EQU   *
*
*   L I N K A G E   C O N V E N T I O N
*
         LA    R12,SAVE       ADDR OF OWN SAVEAREA
         ST    R12,8(R13)       TO CALLER'S SAVE AREA
         ST    R13,4(R12)     ADDR OF CALLER'S SAVE AREA TO OWN S A
         LR    R13,R12
*
*
         LR    R6,R1          SAVE PARAMETER REGISTER
         XC    RC,RC          CLEAR RETURN CODE FIELD
         SPACE 2
         L     R1,PSAAOLD-FLC(0)  GET CURRENT ASCB
         USING ASCBEGIN,R1        ESTABLISH ADDR.
         ICM   R14,7,ASCBJBNI+1   JOBNAME POINTER ?
         BNZ   MOVEJOB            YES SAVE FOR DYNALLOC
         ICM   R14,7,ASCBJBNS+1   MUST BE STC !
MOVEJOB  MVC   TEMPJOB,0(R14)     SAVE JOB NAME
         DROP  R1
         SPACE 2
         XC    BLKTUNAD,BLKTUNAD  CLEAR ADDR OF BLKSIZE TEXT UNIT
         XC    SWITCH,SWITCH  CLEAR PROGRAM INDICATOR BYTE
         XC    COMPSW,COMPSW  CLEAR COMPRESS INDICATOR BYTE
         XC    CATMOVSW,CATMOVSW  CLEAR CAT/MOVE INDICATOR BYTE
         LOAD  EP=IEBCOPY
         ST    R0,COPYADR     ENTRY POINT ADR
         OPEN  (DSNL,,MSG,OUTPUT) OPEN
         L     R6,0(R6)       PICK UP PARM FIELD ADDR
         LH    R14,0(R6)      LENGTH OF PARM FIELD
         LTR   R14,R14        ZERO TEST
         BZ    FEHLPRM        ZERO LENGTH NOT ALLOWED
         LA    R6,2(R6)       START ADDR OF PARM FIELD
         LA    R1,0(R6,R14)
         BCTR  R1,0
         ST    R1,PRMEND      ADDR OF LAST BYTE IN PARM FIELD
NA11     EQU   *
         L     R7,APARMT      ADDR OF PARM KEYWORD TABLE
         BAL   R10,UPKEYW     LINK TO KEYWORD ROUTINE
         CLI   0(R6),C' '     BLANK MEANS NO MORE PARMS
         BE    NA2
         C     R6,PRMEND      END OF PARM FIELD ?
         BH    NA2            YES
         CLI   0(R6),C','     TEST FOR CORRECT DELIMITER
         BE    *+8
         BAL   R10,FEHLLOG    LINK TO LOGICAL ERR ROUT
         LA    R6,1(R6)       INCREASE PARM INDEX REG
         B     NA11           NEXT PARAMETER
NA2      EQU   *
         TM    SWITCH,X'01'   'TO' PARAMETER PRESENT ?
         BZ    FEHLPRM        NO
*
*   DYNAMIC ALLOCATION OF SYSUT3 AND SYSUT4
*
         LA    R6,NS99RB      DYNALLOC ADDRESSABILITY
         USING S99RB,6
         MVI   S99VERB,S99VRBAL  SET ALLOCATION VERB
         XC    S99ERROR,S99ERROR  CLEAR ERROR AND INFO FIELD
         XC    S99INFO,S99INFO
         LA    R1,UT3ATUPL    ADDR OF TEXT UNIT POINTER LIST
         ST    R1,S99TXTPP
         LA    R1,NS99RBPT    ADDR OF SVC99 REQUEST BLOCK PTR
         DYNALLOC             SVC 99 DYNAMIC ALLOCATION
         LTR   R15,R15        TEST RETURN CODE
         BNZ   DALERR         DYNALLOC NOT SUCCESSFUL
         XC    S99ERROR,S99ERROR  CLEAR ERROR AND INFO FIELD
         XC    S99INFO,S99INFO
         MVC   UT3DDNN,=C'SYSUT4'  SYSUT4 ALLOC
         LA    R1,UT3ATUPL    ADDR OF TEXT UNIT POINTER LIST
         ST    R1,S99TXTPP
         LA    R1,NS99RBPT    ADDR OF SVC99 REQUEST BLOCK PTR
         DYNALLOC SVC 99 DYNAMIC ALLOCATION
         LTR   R15,R15        TEST RETURN CODE
         BNZ   DALERR         DYNALLOC NOT SUCCESSFUL
NA3      EQU   *
         BAL   R10,GETDSN     READ DSNAME STATEMENT
NA31     EQU   *
         MVI   MBER2,C'-'     SPACE THREE
         PUT   MSG,MBER2      PRINT DSN STMT
         MVC   EBER+72(8),=8C' '  CLEAR SEQUENCE NUMBER
         CLC   EBER(4),=CL4'***'  TEXT STATEMENT ?
         BE    NA3            YES. READ NEXT STATEMENT
         TM    SWITCH,X'02'   'FROM' PARAMETER PRESENT ?
         BZ    NA4            NO. SET 'NO COPY' INDICATOR
         CLI   UNITFR,C'0'    UNIT NAME ZERO MEANS NO COPY
         BE    NA4
         CLC   EBER(4),=CL4'NCP'  STATUS = NO COPY ?
         BE    NA4            YES
         CLC   EBER(4),=4C' '
         BNE   FEHLIN         INVALID STATUS
         NI    SWITCH,X'FB'   INDICATE STATUS = COPY
         B     NA5
NA4      EQU   *
         OI    SWITCH,X'04'   INDICATE STATUS = NO COPY
NA5      EQU   *
         XC    ATRBER,ATRBER  CLEAR ATTRIBUTES AREA
         NI    CATMOVSW,X'C0'  CLEAR LOCAL CAT/MOVE BITS
         TRT   EBER+4(45),TBL  SCAN FOR DSNAME DELIMITER
         BZ    FEHLIN         INVALID DSNAME
         S     R1,=A(EBER+4)  LENGTH OF DSNAME
         BZ    FEHLIN         ERROR IF ZERO LENGTH
         MVC   DSN,DSNBL      CLEAR DSNAME WORK AREA
         BCTR  R1,0           DECREASE LENGTH FOR EX
         EX    R1,MOVE1       DSNAME TO WORK AREA
         LA    R6,EBER+5(R1)  UPDATE ATTR INDEX
NA51     EQU   *
         TRT   0(20,R6),TNOBL  SCAN FOR NEXT ATTRIBUTE
         BZ    NB1            NO MORE ATTRIBUTES
         CLI   0(R1),C'-'     CONTINUATION CHAR ?
         BNE   NA6            NO
         OI    SWITCH,X'08'   INDICATE CONTINUATION
         BAL   R10,GETDSN     READ CONTINUATION STMT
         PUT   MSG,MBER2      PRINT DSN STMT
         MVC   EBER+72(8),=8C' '  CLEAR SEQUENCE NUMBER
         NI    SWITCH,X'F7'   RESET CONT INDICATOR
         TRT   EBER(20),TNOBL SCAN FOR NEXT ATTRIBUTE
         BZ    FEHLIN         INVALID CONTINUATION CARD
NA6      EQU   *
         LR    R6,R1          ADDR OF NEXT ATTRIBUTE
         L     R7,AKEYWT      ADDR OF ATTR KEYWORD TABLE
         BAL   R10,UPKEYW     LINK TO KEYWORD ROUTINE
         CLI   0(R6),C' '     TEST FOR CORRECT DELIMITER
         BNE   FEHLIN         INVALID ATTR SPECIFICATION
         B     NA51           SCAN FOR NEXT ATTR
NB1      EQU   *
         TM    COMPSW,X'01'   COMPRESS SPECIFIED ?
         BZ    NB10           NO
         CLI   VOLOLDP,X'00'  SPECIAL VOLUME ?
         BNE   NB1B           YES
         MVC   VOLOLDP,VOLFR  NO. TAKE GLOBAL FROM VOL
         MVC   TRKCAPFL(4),TRKCAPFG DEVICE CONSTANTS
         OI   ATRSW2,X'40'
NB1B     EQU   *
         CLI   UNTOLDP,X'00'
         BNE   NB1D
         MVC   UNTOLDP,UNITFR OLD GLOBAL UNIT NAME
         OI    ATRSW2,X'80'
NB1D     EQU   *
         CLI   VOLNEW,X'00'  SPECIAL VOLUME ?
         BNE   NB1F           YES
         MVC   VOLNEW,VOLTO  NO. TAKE GLOBAL TO VOL
         MVC   TRKCAPTL(4),TRKCAPTG DEVICE CONSTANTS
         OI    ATRSW1,X'20'
NB1F     EQU   *
         CLI   UNTNEW,X'00'
         BNE   NB1H
         MVC   UNTNEW,UNITTO NEW GLOBAL UNIT NAME
         OI    ATRSW1,X'40'
NB1H     EQU   *
         MVC   VOLSAVE(14),VOLNEW  SAVE VOL SER AND DEVICE CONSTANTS
         MVC   TRKCAPSV(4),TRKCAPTL
         MVC   SPACESV,SPCPRI-1
         MVI   SPCPRI-1,X'00' CLEAR REDUCTION INDICATOR
         MVC   VOLNEW,UT3VOLV VOLSER OF WORK FILE
         MVC   UNTNEW,UT3UNTU  DEVICE NAME OF WORK FILE
         MVC   TRKCAPTL(4),TRKCAPUT  TRACK CAPACITY OF WORK FILE
*
*   READ ATTRIBUTE DATA SET AND UPDATE DYNALLOC TEXT UNITS
*
NB10     EQU   *
         XC    TUPLNEW(128),TUPLNEW  CLEAR TEXT UNIT POINTER LIST
         LA    R8,TUPLNEW     ADDR OF FIRST TEXT UNIT POINTER
         ST    R8,TUPLFREE    ADDR OF FIRST UNUSED TEXT UNIT PTR
         TM    COMPSW,X'02'   COMPRESSION DONE ?
         BO    NB13           YES
         TM    ATRSW1,X'01'   ATTRIBUTES RECORD PRESENT ?
         BO    NB11           YES
         SPACE
*   NO DADS RECORD. BUILD DDNAME AND DSNAME TEXT UNIT
         SPACE
         LA    R6,TXTAREA     TEXT UNIT ADDRESSABILITY
         USING S99TUNIT,6
         LA    R1,DALDDNAM    DYNALLOC KEY = DDNAME SPECIFICATION
         STH   R1,S99TUKEY
         LA    R1,1           NUMBER OF PARM FIELDS IS ONE
         STH   R1,S99TUNUM
         LA    R1,4           LENGTH OF PARMFIELD IS FOUR
         STH   R1,S99TULNG
         MVC   S99TUPAR(4),=C'DD01'
         L     R1,TUPLFREE    ADD ADDR OF CURRENT TEXT UNIT
         ST    R6,0(R1)          TO TEXT UNIT POINTER LIST
         LA    R6,10(R6)      INCREASE TXTAREA INDEX
         LA    R1,4(R1)       ADDR OF NEXT UNUSED TEXT UNIT PTR
         ST    R1,TUPLFREE
         LA    R1,DALDSNAM    DYNALLOC KEY = DSNAME SPECIFICATION
         STH   R1,S99TUKEY
         LA    R1,1           NUMBER OF PARM FIELDS IS ONE
         STH   R1,S99TUNUM
         MVC   S99TUPAR(44),DSN  DSNAME
         MVC S99TUPAR+44(5),=5C' '  DELIMITER BLANKS
         TRT   S99TUPAR(45),TBL  SCAN FOR DELIMITER
         LA    R2,S99TUPAR
         SR    R1,R2          LENGTH OF DSNAME
         STH   R1,S99TULNG
         L     R1,TUPLFREE
         XC    0(4,R1),0(R1)  ZERO TEXT UNIT ADDR
         LA    R1,4(R1)       ADDR OF NEXT UNUSED TEXT UNIT PTR
         ST    R1,TUPLFREE
         B     NJ1
*
NB11     EQU   *
OPENSW   NOP   NB12  WILL BE SET TO BRANCH WHEN DADS HAS BEEN OPENED
         OPEN  (DADS,INPUT)   OPEN ATTRIBUTES DATA SET
         OI    OPENSW+1,X'F0' SET OPEN SWITCH
NB12     EQU   *
         NI    ATRSW1,X'FE'   RESET ATTR RECORD INDICATOR
         PACK  DOPPLW,ATTR    CONVERT BLOCK ADDR OF ATTR RECORD
         CVB   R8,DOPPLW
         ST    R8,BLOCKADF
         READ  DADSDECB,DI,DADS,TXTAREA,'S',0,BLOCKAD  ATTR RECORD
         CHECK DADSDECB
NB13     EQU   *
         LA    R6,TXTAREA     START ADDR OF TEXT UNIT AREA
NB2      EQU   *
         TM    COMPSW,X'01'   COMPRESS SPECIFIED ?
         BO    NB31           YES
         L     R7,ATS99K      ADDR OF DYNALLOC KEY TABLE
NB3      EQU   *
         CLC   2(2,R6),0(R7)  LOOK UP DYNALLOC KEY TABLE
         BE    NB5            KEY FOUND
         CLC   0(2,R7),=2X'FF'  END OF TABLE ?
         BE    FEHLTXT        YES. INVALID DYNALLOC KEY
         LA    R7,8(R7)       NEXT TABLE ENTRY
         B     NB3
NB31     EQU   *
         L     R7,ATS99KC     ADDR OF DYNALLOC KEY TABLE -COMPRESS-
         B     NB3
NB5      EQU   *
         L     R8,TUPLFREE    ADDR OF NEXT FREE TEXT UNIT PTR
         LA    R1,2(R6)       STORE ADDR OF TEXT UNIT
         ST    R1,0(R8)       INTO TEXT UNIT POINTER LIST
         L     R15,4(R7)      ADDR OF DAL KEY UPDATE ROUT
         LTR   R15,R15        ZERO TEST
         BZ    NB6            ZERO. NO UPDATE OF TEXT UNIT
         BALR  R10,R15        LINK TO DAL KEY UPDATE ROUTINE
NB6      EQU   *
         L     R8,TUPLFREE
         LA    R8,4(R8)
         ST    R8,TUPLFREE    ADDR OF NEXT UNUSED TEXT UNIT PTR
         AH    R6,0(R6)       UPDATE TEXT UNIT INDEX
         CLC   0(2,R6),=2C' '  ANY MORE TEXT UNITS ?
         BE    NJ1            NO
         C     R6,=A(TXTAREA+189)  END OF TEXT AREA
         BL    NB2            NO. NEXT TEXT UNIT
         BAL   R10,FEHLLOG    LOGICAL ERROR
         EJECT
*************************************************************
*************************************************************
**                                                         **
**         DYNALLOC (DAL) KEY UPDATE ROUTINES              **
**                                                         **
**    TEXT UNITS OF THE ATTRIBUTE DATA SET (DADS) WILL     **
**    BE UPDATED BY ATTRIBUTES SPECIFIED IN THE DSNAME     **
**    STATEMENTS.                                          **
**                                                         **
*************************************************************
*************************************************************
         SPACE
*
*   COMPRESS PHASE:  TEST FOR CORRECT DDNAME
*
NDDN     EQU   *
         CLC   8(6,R6),=C'SYSUT2'  SYSUT2 MEANS SEQUENTIAL DATA SET
         BE    FEHLIN         COMPRESS OPTION NOT ALLOWED
         BR    R10            RETURN
*
*   FORMAT OF REQUESTED SPACE  -TRACKS
*
NTRK     EQU   *
         TM    ATRSW1,X'08'   TEST SPACE FORM INDICATOR
         BZ    0(R10)         NO UPDATE SPECIFIED. RETURN
         TM    SPCFMT,X'02'   CYLINDER ALLOC SPECIFIED ?
         BZ    0(R10)         NO. RETURN
         LA    R1,DALCYL      CHANGE DAL KEY TO CYLINDER ALLOC
         STH   R1,2(R6)
         NI    SPCFMT,X'FD'   RESET CYL INDICATOR
         TM    SPCFMT,X'FF'   ANY BIT ON IN SPACE FORMAT INDICATOR BYTE
         BNZ   0(R10)         YES. RETURN
         NI    ATRSW1,X'F7'   NO. RESET SPACE FORM INDICATOR
         BR    R10            RETURN
*
*   REQUESTED SPACE  -CYLINDERS-
*
NCYL     EQU   *
         TM    ATRSW1,X'08'   TEST SPACE FORM INDICATOR
         BZ    0(R10)         NO CHANGE OF DAL KEY SPECIFIED
         TM    SPCFMT,X'01'   TRACK ALLOC SPECIFIED ?
         BZ    0(R10)         NO. RETURN
         LA    R1,DALTRK      CHANGE DAL KEY TO TRACK ALLOC
         STH   R1,2(R6)
         NI    SPCFMT,X'FE'   RESET TRACK INDICATOR
         TM    SPCFMT,X'FF'  ANY BIT ON IN SPACE FORMAT INDICATOR BYTE?
         BNZ   0(R10)         YES.RETURN
         NI    ATRSW1,X'F7'   NO. RESET SPACE FORM INDICATOR
         BR    R10            RETURN
*
*   PRIMARY ALLOCATION
*
NPRI     EQU   *
         TM    COMPSW,X'01'   COMPRESS SPECIFIED ?
         BO    NB61           YES. BYPASS USER'S SPACE MODIFICATION
         TM    ATRSW1,X'02'   TEST PRIM ALLOC INDICATOR
         BZ    NB61           NO UPDATE SPECIFIED
         SPACE
*  SPACE REDUCTION SEQUENCE
         SPACE
         CLI   SPCPRI-1,X'FF'  SPACE REDUCTION SPECIFIED ?
         BNE   NB6M           NO
         MVC   VOLOBT,VOLFR   MOVE VOL SER TO OBTAIN WORK AREA
         CLI   VOLOLDP,X'00'  SPECIAL VOL PRESENT ?
         BE    NB60A          NO
         MVC   VOLOBT,VOLOLDP  TAKE SPECIAL VOLUME
NB60A    EQU   *
         TM    COMPSW,X'02'   COMPRESSION DONE ?
         BO    NB60B          YES
         MVC   DSNOBT,DSN     DSNAME TO OBTAIN PARAMETER LIST
NB60B    EQU   *
         OBTAIN SEARCHL
         LTR   R15,R15        TEST RETURN CODE
         BNZ   FEHLVTOC       OBTAIN NOT SUCCESSFUL
         LA  R2,DSCBAREA-44   F1 DSCB ADDRESSABILITY
         USING IECSDSL1,2
         XC    DOPPLW,DOPPLW
       MVC   DOPPLW+2(2),DS1LSTAR  ALIGN TTR OF LAST BLOCK
         LR    R1,R6          ACCESS PREVIOUS TEXT UNIT (SPACE FORMAT)
         SH    R1,=H'4'
         CLC   0(2,R1),=H'7'  TRACK ALLOCATION ?
         BE    NB6D           YES
         CLI   VOLOLDP,X'00'  SPECIAL VOLUME ?
         BNE   NB6A           YES
         MVC   TRKCYLFL,TRKCYLFG  NUMBER OF TRACKS PER CYLINDER
NB6A     EQU   *
         ST    R10,REG10TUN   SAVE RETURN REG
         L     R10,DOPPLW     LAST USED TRACK
         AH    R10,TRKCYLFL   PLUS ONE CYLINDER
         SRDL  R10,32
         LH    R1,TRKCYLFL    NUMBER OF TRACKS PER CYLINDER
         DR    R10,R1         NUMBER OF USED CYLINDER
         ST    R11,DOPPLW
         L     R10,REG10TUN   RELOAD RETURN REG
NB6D     EQU   *
         L     R1,DOPPLW      PRIMARY SPACE
         AH    R1,SPCPRI+1    INCREASED BY ADDITIONAL SPACE
         ST    R1,SPCPRI-1
NB6M     EQU   *
         MVC   8(3,R6),SPCPRI  NEW PRIMARY ALLOC
         OI    SPCFMT,X'10'   SET PRIM ALLOC CHANGE INDICATOR
         NI    ATRSW1,X'FD'   RESET PRIM ALLOC INDICATOR
NB61     EQU   *
*    SPACE CONVERSION SEQUENCE
         SPACE
         MVC   SPCPRI,8(R6)   OLD PRIMARY SPACE
         CLI   VOLOLDP,X'00'  SPECIAL VOLUME ?
         BNE   NB62           YES
         MVC   TRKCAPFL(4),TRKCAPFG  TRACK CAPACITY, NO. OF TRACKS/CYL
NB62     EQU   *
         CLI   VOLNEW,X'00'   SPECIAL RECEIVING VOL ?
         BNE   NB63           YES
         MVC   TRKCAPTL(4),TRKCAPTG  TRACK CAPACITY, NO. OF TRACKS/CYL
NB63     EQU   *
         CLC   SPCPRI,=3X'00' NO CONVERSION IF SPACE ZERO
         BE    0(R10)         RETURN
         CLC   TRKCAPFL,TRKCAPTL  COMPARE OLD AND NEW TRACK CAPACITY
         BNE   NB64           NOT EQUAL. CONVERSION REQUIRED
         CLC   TRKCYLFL,TRKCYLTL  COMP OLD AND NEW NO. OF TRK/CYL
         BE    0(R10)         EQUAL. NO CONVERSION
NB64     EQU   *
         CLC   TRKCAPFL,TRKCAPTL  DIFFERENT TRACK CAPACITY ?
         BE    NB69           NO.
         SPACE 5
SBV10    EQU   *                                           PA 10788 SBV
         ST    R10,REG10TUN        SAVE RETURN REG         PA 10788 SBV
         LA    R1,TXTAREA          START ADDR TEXT UNIT    PA 10788 SBV
SBV30    EQU   *                                           PA 10788 SBV
         CLC   2(2,R1),=X'0030'    LOOK UP DYNALL KEY TAB  PA 10788 SBV
         BE    SBV50               YES, BLKSIZE            PA 10788 SBV
         CLC   2(2,R1),=X'000C'    LOOK UP DIR
         BE    DIRST               YES, DIR
         CLC   2(2,R1),=X'0007'    LOOK UP DYNALL KEY TAB  PA 10788 SBV
         BNE   AHR1                YES, BLKSIZE            PA 10788 SBV
         OI    SWITCHX,X'80'
AHR1     AH    R1,0(R1)            UPDAT TEXT UNIT INDEX   PA 10788 SBV
         CLC   0(2,R1),=2C' '      ANY MORE TEXT UNITS ?   PA 10788 SBV
         BE    SBV90               NO                      PA 10788 SBV
         C     R1,=A(TXTAREA+189)  END OF TEXTAREA ?       PA 10788 SBV
         BL    SBV30               NO, NEXT TEXT UNIT      PA 10788 SBV
         B     SBV90               CONVERSION              PA 10788 SBV
         SPACE
DIRST    EQU   *
         ST    R1,SAVEDIR          A(TEXTUNIT)
         B     AHR1
SAVEDIR  DC    F'0'
         SPACE
SBV50    EQU   *                                           PA 10788 SBV
         MVC   BLKS,8(R1)          SAVE BLKSIZE
         B     AHR1                                        PA 20310 SBV
         SPACE 2
UCBUNF   LA    R0,ANZUN
         LA    R15,UCBUN
CLCR1    EQU   *
         CLC   0(8,R1),0(R15)
         BE    UCBUNF1
         LA    R15,9(R15)
         BCT   R0,CLCR1
         DC    X'0000'
UCBUNF1  IC    R0,8(R15)
         BR    R14
   SPACE 2
SBV90    EQU   *                                           PA 10788 SBV
         SPACE 5                                           PA 10788 SBV
         LA    R1,UNITFR
         BAL   R14,UCBUNF
         STC   R0,DEVTM+3
         SPACE
         LA    R1,UNITTO
         BAL   R14,UCBUNF
         STC   R0,DEVT+3
         SPACE
   SPACE 5
         TRKCALC FUNCTN=TRKBAL,TYPE=DEVTM+3,RKDD=BLOCK,REGSAVE=YES
         LTR   R15,R15
         BNZ   0
         STH   R0,BALANCE
         TRKCALC FUNCTN=TRKCAP,TYPE=DEVTM+3,RKDD=BLOCK,REGSAVE=YES,    X
               BALANCE=BALANCE
         LTR   R15,R15
         BNZ   0
         STH   R0,BLKTRKO
   SPACE 5
         TRKCALC FUNCTN=TRKBAL,TYPE=DEVT+3,RKDD=BLOCK,REGSAVE=YES
         LTR   R15,R15
         BNZ   0
         STH   R0,BALANCE
         TRKCALC FUNCTN=TRKCAP,TYPE=DEVT+3,RKDD=BLOCK,REGSAVE=YES,     X
               BALANCE=BALANCE
         LTR   R15,R15
         BNZ   0
         STH   R0,BLKTRKN
*  TRACK CAPACITIES NOT EQUAL
         ST    R10,REG10TUN   SAVE RETURN REG
         SR    R0,R0
         ICM   R15,15,SAVEDIR                PO ?
         BZ    NOPO                          NO
         SR    R1,R1
         ICM   R1,7,8(R15)                   # DIR
         SR    R0,R0
         LA    R14,46    ***************** # DIR PRO 3380 ********
         DR    R0,R14                        # TRACKS
         LTR   R0,R0
         BZ    *+8                           NO REMAINDER
         LA    R1,1(R1)                      + 1 TRACK
         LR    R0,R1
         ST    R0,SAVEDIR                    SAVE # TRACKS
         SPACE 2
NOPO     EQU   *
         L     R1,SPCPRI-1
         TM    SWITCHX,X'80'
         BO    SBV100
         MH    R1,TRKCYLFG
SBV100   EQU   *
         SR    R1,R0
         MH    R1,BLKTRKO
         LH    R14,BLKTRKN
         SR    R0,R0
         DR    R0,R14
         A     R1,SAVEDIR                   ADD # TRACKS FOR DIR
         TM    SWITCHX,X'80'
         BO    SBV101
         SR    R0,R0
         LH    R14,TRKCYLTG
         DR    R0,R14
SBV101   EQU   *
         LA    R1,1(R1)
         TM    SWITCHX,X'80'                WAS CYL ALLOC ?
         BZ    CYLALLO
         LA    R1,1(R1)                     + 1 TRACK
CYLALLO  EQU   *
         SR    R0,R0
         ST    R0,SAVEDIR
         ST    R1,SPCPRI-1
         NI    SWITCHX,255-X'80'
   SPACE 2
NB69     EQU    *
         MVC   8(3,R6),SPCPRI  CONVERTED SPACE
         L     R10,REG10TUN   RELOAD RETURN REG
         BR    R10            RETURN
SWITCHX  DC    X'0',X'0'
*
*    SECONDARY ALLOCATION
*
NSEC     EQU   *
         TM    ATRSW1,X'04'   TEST SEC ALLOC INDICATOR
         BO    NB7            UPDATE SPECIFIED.
         TM    SPCFMT,X'10'   PRIMARY ALLOC CHANGED ?
         BZ    0(R10)         NO. RETURN
         CLI   SPCSEC-1,X'FF' SPACE REDUCTION SPECIFIED ?
         BE    NB8            YES. 2ND SPACE ALLOC REMAINS UNCHANGED
         L     R1,TUPLFREE    ADDR OF SEC ALLOC TEXT UNIT PTR
         XC    0(4,R1),0(R1)  NULLIFY SEC ALLOC POINTER
         B     NB8
NB7      EQU   *
         MVC   8(3,R6),SPCSEC  NEW SECONDARY ALLOC
NB8      EQU   *
         NI    ATRSW1,X'F9'   RESET SPACE ALLOC INDICATORS
         BR    R10            RETURN
*
*   DIRECTORY BLOCK ALLOCATION
*
NDIR     EQU   *
         TM    ATRSW1,X'80'   TEST DIR BLK INDICATOR
         BZ    0(R10)         NO UPDATE SPECIFIED
         MVC   8(3,R6),SPCDIR  NEW DIRECTORY BLOCK ALLOC
         NI    ATRSW1,X'7F'   RESET DIR BLK INDICATOR
         BR    R10            RETURN
*
*   FORMAT OF REQUESTED SPACE  -CONTIG/NONCONTIG-
*
NFMT     EQU   *
         TM    ATRSW1,X'08'   TEST FORMAT INDICATOR
         BZ    0(R10)         NO UPDATE SPECIFIED. RETURN
         TM    SPCFMT,X'04'   TEST CONTIG BIT
         BO    NB9            CONTIG IS SPECIFIED
         TM    SPCFMT,X'08'   TEST NONCONTIG BIT
         BZ    NC1            NO UPDATE SPECIFIED
         L     R1,TUPLFREE    ADDR OF PTR TO SPACE FORM TEXT UNIT
         XC    0(4,R1),0(R1)  NULLIFY SPACE FORM PTR (NONCONTIG)
         B     NC1
NB9      EQU   *