         MACRO
&NAME    ERET  &REG=(14,12),&CT=,&RC=,&SA=72
*
*    ERET        24.01.77
*
.* RC=   RETURN-CODE,
.*       WIE IM RETURN-MACRO ANGEGEBEN WERDEN KANN
.* REG=  REGISTERNOTIERUNG, STANDARDWERT IST (14,12)
.*       WIE IM RETURN-MACRO ANGEGEBEN WERDEN KANN
.* CT=   T,
.*       WIE IM RETURN-MACRO ANGEGEBEN WERDEN KANN
.* SA=   LAENGE DER SAVEAREA, STANDARDWERT IST 72
         LCLC  &TRC  DEFINIERT DEN TYP VON &RC
&TRC     SETC  T'&RC  DAMIT AUF FEHLEN VON RC= GEPRUEFT WERDEN KANN
&NAME    LA    1,0(13)
         L     13,4(1)
         LR    1,2
         AIF   ('&REG' EQ 'NO').M3
         AIF   ('&TRC' EQ 'O').M1
         RETURN &REG,&CT,RC=&RC
         AGO   .M2
.M1      RETURN &REG,&CT
.M2      MNOTE *,'ERET GENERIERT'
         MEXIT
.M3      AIF   ('&TRC' EQ 'O').M4
         RETURN &CT,RC=&RC
         AGO   .M2
.M4      RETURN &CT
         AGO   .M2
         MEND
         MACRO
&NAME    EANF  &V,&CD=C,&LC=0,&BR=1,&SA=72,&EP=,&ID=,&REG=(14,12),     1
               &CT=
*
*   EANF    24.01.77
*
.*
.* V     REG. 15 WIRD ZUM LADEN DER BASISREG. BENUTZT
.* CD=   STANDARDWERT IST -S- WIE -START-
.*       ZULAESSIG AUCH -C- WIE -CSECT-
.* LC=   STANDARDWERT IST -0-, SETZT ZUORDNUNGSZAEHLER AUF 0
.*       NUR ZULAESSIG IN VERBINDUNG MIT -START-, SIEHE CD=
.* BR=   STANDARDWERT IST -1- WIE -EIN BASISREGISTER=BASIS1=R3-
.*       ZULAESSIG IST 0,1,2 ODER 3
.* SA=   STANDARDWERT IST -72-
.*       GIBT DIE LAENGE DER SAVEAREA AN
.* EP=   NAME DES EINGANGSPUNKTES. WENN ANGEGEBEN,SO WIRD
.*       ER MERKMAL DER SAVE-INSTUKTION IN DER MAKROAUFLOESUNG
.* ID=   IDENTIFIKATION, WIE BEIM SAVE-MACRO ANGEGEBEN WERDEN KANN
.* REG=  REGISTERNOTIERUNG, STANDARDWERT IST (14,12)
.*       WIE IM SAVE-MACRO ANGEGEBEN WERDEN KANN
.* CT=   T,
.*       WIE IM SAVE-MACRO ANGEGEBEN WERDEN KANN
.*
.* GLOBALE VARIABLE ZUM TEST GEGEN DOPPELDEFINITION DER REGISTER
         GBLB  &GLBIT   BETROFFEN SIND DIE EQU'S
         GBLA  &GLBR
         LCLA  &SETBR   ZUM TEST FUER BR=
         LCLA  &LECS
         LCLC  &CSET
         LCLA  &ASET
.*
         AIF   (T'&NAME EQ 'O').M1
.M2      AIF   ('&CD' EQ 'S').M3
         AIF   ('&CD' EQ 'C').M4
         MNOTE 4,'CD=  IST UNGUELTIG'
.M3      MNOTE *,'START GENERIERT'
&NAME    START &LC
         AGO   .M5
.M4      MNOTE *,'CSECT GENERIERT'
&NAME    CSECT
.M5      ANOP
         AIF   (&GLBIT).E1
*
*
*
         MNOTE *,'SYMBOLISCHE REGISTER GENERIERT'
*
R15      EQU   15  VERZWEIGREGISTER
R14      EQU   14  RUECKKEHRREGISTER
R13      EQU   13  REGISTER FUER DEN LAUFENDEN SICHERUNGSBEREICH
R12      EQU   12
R11      EQU   11
R10      EQU   10
R9       EQU   9
R8       EQU   8
R7       EQU   7
R6       EQU   6
R5       EQU   5
R4       EQU   4
R3       EQU   3
R2       EQU   2   BEI TRT-EINGABEDATENPRUEFUNG VERWENDET
R1       EQU   1   PARAMETERREGISTER
R0       EQU   0   PARAMETERREGISTER
*
*
.E1      AIF   ('&BR'(1,1) NE '(').E2
         AGO   .M22
.E2 ANOP
&SETBR   SETA  &BR
         AIF   (&GLBIT).M18
.M19     AIF   (&SETBR EQ 0).M6
         AIF   (&SETBR GE 1).M8
.M9      AIF   (&SETBR GE 2).M10
.M12     ANOP
         AIF   (&GLBR GT &SETBR).M22
&GLBR    SETA  &SETBR
.M22     ANOP
**
**
         USING *,R15
MACR&SYSNDX EQU *
&EP      SAVE  &REG,&CT,&ID
         LR    2,1
         AIF   (T'&EP EQ 'O').M13
         AIF   (T'&EP EQ 'SYSECT').M21
         ENTRY &EP
         MNOTE *,'ENTRY-EINGANGSPUNKT GENERIERT'
.M13        CNOP  0,4
            LA    1,*+8
            B     *+4+&SA
            DS    &SA.C
         ST    R13,4(R1)
         LR    R10,R13
         LA    R13,0(R1)
         ST    R13,8(R10)
         LR   1,2
         AIF   (&GLBIT).M17
*
* AUFBAU DER SAVEAREA
*
* WORT 0  NUR VON PL/1 VERWENDET
* WORT 1  A(SAVEAREA IM RUFENDEN PROGRAMM)
* WORT 2  A(SAVEAREA IM GERUFENEN PROGRAMM)
* WORT 3  R14
* WORT 4  R15
* WORT 5  R0         **BEI         R14
* WORT 6  R1         **ZUGRIFFS-   R15
* WORT 7  R2         **ROUTINEN    R0
* WORT 8  R3 BASIS1  **WERDEN      R1
* WORT 9  R4 BASIS2  **HIER        R2
* WORT 10 R5 BASIS3  **FOLGENDE    R3
* WORT 11 R6         **REGISTER    R4
* WORT 12 R7         **VON DER     R5
* WORT 13 R8         **ZUGRIFFS-   R6
* WORT 14 R9         **ROUTINE     R7
* WORT 15 R10        **GESPEICHERT R8
* WORT 16 R11
* WORT 17 R12
*
.M17     ANOP
         AIF   ('&BR'(1,1) NE '(').E5
&SETBR   SETA  N'&BR
         BALR  &BR(1),0
         USING *,&BR(1)
         AIF   (&SETBR EQ 1).M14
         AIF   (&SETBR GT 10).E4
.E3      ANOP
&LECS    SETA  2
&ASET    SETA  1
         LA    &BR(&SETBR),4095
         LA    &BR(&LECS),1(&BR(&ASET),&BR(&SETBR))
         AIF   (&LECS NE &SETBR).E11
 USING *+4096-&SETBR*4,&BR(2)
 AGO .M14
.E11  ANOP
&LECS    SETA  &LECS+1
&ASET    SETA  &ASET+1
         LA    &BR(&LECS),1(&BR(&ASET),&BR(&SETBR))
         AIF   (&LECS NE &SETBR).E12
 USING *+4096-&SETBR*4,&BR(2),&BR(3)
 AGO .M14
.E12  ANOP
&LECS    SETA  &LECS+1
&ASET    SETA  &ASET+1
         LA    &BR(&LECS),1(&BR(&ASET),&BR(&SETBR))
         AIF   (&LECS NE &SETBR).E13
 USING *+4096-&SETBR*4,&BR(2),&BR(3),&BR(4)
 AGO .M14
.E13  ANOP
&LECS    SETA  &LECS+1
&ASET    SETA  &ASET+1
         LA    &BR(&LECS),1(&BR(&ASET),&BR(&SETBR))
         AIF   (&LECS NE &SETBR).E14
 USING *+4096-&SETBR*4,&BR(2),&BR(3),&BR(4),&BR(5)
 AGO .M14
.E14  ANOP
&LECS    SETA  &LECS+1
&ASET    SETA  &ASET+1
         LA    &BR(&LECS),1(&BR(&ASET),&BR(&SETBR))
         AIF   (&LECS NE &SETBR).E15
 USING *+4096-&SETBR*4,&BR(2),&BR(3),&BR(4),&BR(5),&BR(6)
 AGO .M14
.E15  ANOP
&LECS    SETA  &LECS+1
&ASET    SETA  &ASET+1
         LA    &BR(&LECS),1(&BR(&ASET),&BR(&SETBR))
         AIF   (&LECS NE &SETBR).E16
 USING *+4096-&SETBR*4,&BR(2),&BR(3),&BR(4),&BR(5),&BR(6),&BR(7)
 AGO .M14
.E16  ANOP
&LECS    SETA  &LECS+1
&ASET    SETA  &ASET+1
         LA    &BR(&LECS),1(&BR(&ASET),&BR(&SETBR))
         AIF   (&LECS NE &SETBR).E17
 USING *+4096-&SETBR*4,&BR(2),&BR(3),&BR(4),&BR(5),&BR(6),&BR(7),&BR(8)
 AGO .M14
.E17  ANOP
&LECS    SETA  &LECS+1
&ASET    SETA  &ASET+1
         LA    &BR(&LECS),1(&BR(&ASET),&BR(&SETBR))
         AIF   (&LECS NE &SETBR).E18
 USING *+4096-&SETBR*4,&BR(2),&BR(3),&BR(4),&BR(5),&BR(6),&BR(7),&BR(8)*
               ,&BR(9)
 AGO .M14
.E18  ANOP
&LECS    SETA  &LECS+1
&ASET    SETA  &ASET+1
         LA    &BR(&LECS),1(&BR(&ASET),&BR(&SETBR))
         AIF   (&LECS NE &SETBR).E19
 USING *+4096-&SETBR*4,&BR(2),&BR(3),&BR(4),&BR(5),&BR(6),&BR(7),&BR(8)*
               ,&BR(9),&BR(10)
 AGO .M14
.E19  ANOP
         AGO   .M14
.E4      MNOTE 4,'MEHR ALS 10 BASISREGISTER ANGEGEBEN'
         MNOTE *,'10 BASISREGISTER WERDEN GENERIERT'
&SETBR   SETA  10
         AGO   .E3
.E5      AIF   (&SETBR EQ 0).M14
         AIF   ('&V' EQ 'V').M25
         BALR  BASIS1,0
         USING *,BASIS1
.M26     ANOP
         MNOTE *,'BASIS1 BEREITGESTELLT, GELADEN'
.M24     ANOP
         AIF   (&SETBR EQ 1).M14
         AIF   (&SETBR EQ 2).M15
         AIF   ('&V' EQ 'V').M27
         USING *+4096,BASIS2,BASIS3
.M28     ANOP
         LA    BASIS3,4095
         LA    BASIS2,1(BASIS1,BASIS3)
         LA    BASIS3,1(BASIS2,BASIS3)
         MNOTE *,'BASIS2 UND BASIS3 BEREITGESTELLT, GELADEN'
.M14     ANOP
&GLBIT   SETB  1
*
*
*   ENDE DES VORSPANNES
*
*
         MEXIT
.M15     AIF   ('&V' EQ 'V').M29
         USING *+4096,BASIS2
.M30     ANOP
         LA    BASIS2,4095
         LA    BASIS2,1(BASIS1,BASIS2)
         MNOTE *,'BASIS2 BEREITGESTELLT, GELADEN'
         AGO   .M14
.M18     AIF   (&GLBR GE &SETBR).M12
         AIF   (&GLBR EQ 0).M19
         AIF   (&GLBR EQ 1).M9
         AIF   (&GLBR EQ 2).M11
         AGO   .M20
.M1      MNOTE 12,'UNBENANNTE CONTROL-SECTION'
         AGO   .M2
.M6      MNOTE *,'KEINE BASISREGISTER GENERIERT'
         AGO   .M12
.M8      MNOTE *,'BASIS1 GENERIERT'
BASIS1   EQU   3   ** BASISREGISTER 1 **
         AGO   .M9
.M10     MNOTE *,'BASIS2 GENERIERT'
BASIS2   EQU   4   ** BASISREGISTER 2 **
         AIF   (&SETBR GE 3).M11
         AGO   .M12
.M11     MNOTE *,'BASIS3 GENERIERT'
BASIS3   EQU   5   ** BASISREGISTER 3 **
         AIF   (&SETBR EQ 3).M12
.M20     MNOTE 4,'BR=  ZU HOCH'
         AGO   .M12
.M21     MNOTE 4,'EP=  CSECT-NAME'
         AGO   .M13
.M25     USING MACR&SYSNDX,BASIS1
         LR    BASIS1,R15
         AGO   .M26
.M27     USING MACR&SYSNDX+4096,BASIS2,BASIS3
         AGO   .M28
.M29     USING MACR&SYSNDX+4096,BASIS2
         AGO   .M30
         MEND
QX01442 EANF
         B     START                   SURROUND CSECT IDENTIFICATION
         DC    CL44'QX01442 V02L00 SEP 6TH, 1976 SCHMIDT IDUNA'
START    DS    0H
         LR    R2,R1                   SAVE PARMADDR
         ICM   R12,15,QX01441
         BNZ   START1
         LOAD  EP=QX01441
         LR    R12,R0                  SAVE ENTRY POINT ADDRESS
         ST    R0,QX01441
START1   EQU   *
         L     R5,0(R2)                FIRST LOCATOR ADDRESS
         L     R5,0(R5)                FIRST PARAMETER ADDRESS
         MVC   VOLSER,0(R5)            VOLUME SERIAL NUMBER
         L     R5,4(R2)                SECOND LOCATOR ADDRESS
         L     R5,0(R5)                SECOND PARAMETER ADDRESS
         L     R6,12(R2)               FOURTH LOCATOR ADDRESS
         L     R6,0(R6)                FOURTH PARAMETER ADDRESS
         CLC   VTOC,0(R5)              VTOC START REQUESTED
         BE    OBTAIN1                 YES, READ FORMAT4 DSCB
         MVC   CCHHR,0(R5)             GET OLD DSCB ADDRESS
         CLC   ABSTR,0(R6)             SEEK WITH UNMODIFIED TRACK ADDR
         BE    OBTAIN2                 YES, READ WITHOUT CCHHR MODIFIC
         B     NEXTDSCB                SEARCH NEXT DSCB
*
OBTAIN1  EQU   *
         XC    ALA,ALA                 RESET CURRENT UCB ADDRESS
*
UCBCALL  EQU   *
         LR    R15,R12                 QX01441 ENTRY POINT ADDRESS
         CALL  (15),(UCBALA,UCBA),VL
         B     *+4(R15)
         B     OK                      UCB FOUND
         B     VTOCEND                 END OF UCB TABLE
*
OK       EQU   *
         USING UCBOB,RUCB              UCB DSECT ADDRESSABILITY
         LA    RUCB,UCBAREA            ADDRESS OF UCB
         CLC   UCBTYP+2(2),=X'2006'    2305-1
         BE    TESTVOL
         CLC   UCBTYP+2(2),=X'2007'    2305-2
         BE    TESTVOL
         CLC   UCBTYP+2(2),=X'2008'    2314 / 2319
         BE    TESTVOL
         CLC   UCBTYP+2(2),=X'2009'    3330
         BE    TESTVOL
         CLC   UCBTYP+2(2),=X'200A'    3340
         BE    TESTVOL
         CLC   UCBTYP+2(2),=X'200B'    3350
         BE    TESTVOL
         CLC   UCBTYP+2(2),=X'200E'    3380              PA  20310
         BE    TESTVOL
         CLC   UCBTYP+2(2),=X'200D'    3330-1
         BNE   UCBCALL                 DEVICE TYPE NOT ACCEPTABLE
*
TESTVOL  EQU   *
         CLC   VOLSER,UCBVOLI          THIS VOLUME REQUESTED
         BNE   UCBCALL                 NO, GET NEXT UCB
         DROP  RUCB                    END OF UCB ADDRESSABILITY
         OBTAIN CAMLST1
         B     *+4(R15)                CHECK RETURN CODE
         B     FOUND1                  NORMAL END
         B     MOUNTERR                VOLUME WAS NOT MOUNTED
         B     FOUND1                  F1 DSCB MISSING MEANS F4 DSCB
         B     IOERR                   PERMANENT I/O ERROR
         B     INVAL                   INVALID WORKAREA POINTER
*
FOUND1   EQU   *
         LA    RDSCB,IECSDSL4          ADDRESS OF DSCB
         USING IECSDSL4,RDSCB          DSCB ADDRESSABILITY
         CLI   DS4IDFMT,X'F4'          VERIFY FORMAT4 DSCB
         BNE   F4MISS                  ERROR IF NOT FORMAT4
         MVC   DSCBNO,DS4DEVDT         NUMBER OF DSCB'S ON TRACK
         MVC   CCHHR,DS4HPCHR          HIGHEST FORMAT1 DSCB ADDRESS
         MVC   TRKNUM,DS4DEVSZ+2       NUMBER OF TRACKS ON CYLINDER
         CLC   F4,0(R6)                FORMAT4 DSCB REQUESTED
         BE    PASSF4                  YES, PASS DSCB TO CALLER
         DROP  RDSCB
*
OBTAIN2  EQU   *
         OBTAIN CAMLST2
         B     *+4(R15)                CHECK RETURN CODE
         B     FOUND2                  DSCB FOUND
         B     MOUNTERR                VOLUME WAS NOT MOUNTED
         B     F1MISS                  FORMAT1 DSCB NOT FOUND
         B     IOERR                   PERMANENT I/O ERROR
         B     INVAL                   INVALID WORKAREA POINTER
         B     OUTEX                   SEEK OUT OF VTOC
*
FOUND2   EQU   *
         LA    RDSCB,IECSDSL1          DSCB ADDRESS
         USING IECSDSL1,RDSCB          FORMAT1 DSCB ADDRESSABILITY
         CLI   DS1FMTID,X'F1'          FORMAT1 DSCB
         BE    PASSDATA                PASS DSCB TO CALLER
         CLI   DS1FMTID,X'F4'          END (START) OF VTOC
         BE    VTOCEND                 TERMINATE SCAN
         CLC   ABSTR,0(R6)             SEEK WITH UNMODIFIED TRACK ADDR
         BE    PASSDATA                YES, PASS DSCB TO CALLER
*
NEXTDSCB EQU   *
         XR    R4,R4                   CLEAR WORKREG
         CLI   R,X'01'                 FIRST DSCB ON TRACK
         BE    SUBTRK                  YES, CHANGE TRACK
         IC    R4,R                    CURRENT DSCB RECORD NUMBER
         BCTR  R4,0                    NEXT LOWER RECORD
         STC   R4,R                    STORE RECORD NUMBER
         B     OBTAIN2                 NEXT DSCB
*
SUBTRK   EQU   *
         ICM   R4,15,CCHH              CCHH PART OF ADDRESS
         BCTR  R4,0                    NEXT LOWER TRACK
         STCM  R4,15,CCHH              AND/OR CYLINDER
         MVC   R,DSCBNO                HIGHEST POSSIBLE RECORD NO.
         CLC   HH,FCON                 HAS CYL CHANGED
         BNE   OBTAIN2                 NO, READ NEXT DSCB
         MVC   HH,TRKNUM               HIGHEST TRACK ADDRESS
         XR    R4,R4                   CLEAR WORKREG
         ICM   R4,3,HH                 TRACK ADDRESS
         BCTR  R4,0                    DECREASE BY ONE
         STCM  R4,3,HH                 AND SAVE IT
         B     OBTAIN2                 NEXT DSCB
*
PASSDATA EQU   *
         LA    R15,0                   RETURN CODE ZERO
         MVC   0(5,R5),CCHHR           DSCB ADDRESS TO CALLER
*
DSCBMOVE EQU   *
         L     R5,8(R2)                3RD LOCATOR
         L     R5,0(R5)                3RD PARAMETER ADDRESS
         MVC   0(140,R5),IECSDSL1      DSCB TO CALLER
         B     END                     RETURN TO CALLER
*
VTOCEND  EQU   *
         LA    R15,4                   RETURN CODE 4
         MVC   0(5,R5),=CL5'END'       INDICATE VTOC END
         B     DSCBMOVE                RETURN WITH F4DSCB TO CALLER
*
PASSF4   EQU   *
         LA    R15,0                   RETURN CODE ZERO
         MVC   0(5,R5),=CL5'VTOC'      TO PERMIT NEXT ENTRY
         L     R5,8(R2)                3RD LOCATOR
         L     R5,0(R5)                3RD PARAMETER ADDRESS
         XC    0(140,R5),0(R5)         RESET OLD DATA
         MVC   0(96,R5),IECSDSL4       DSCB4 TO CALLER
         B     END                     RETURN TO CALLER
*
MOUNTERR EQU   *
         LA    R15,8                   RC=8 VOLUME WAS NOT MOUNTED
         MVC   0(5,R5),=CL5'MOUNT'     INDICATE MOUNT ERROR
         B     END                     RETURN TO CALLER
*
F1MISS   EQU   *
*
F4MISS   EQU   *
         LA    R15,12                  RC=12 INCORR FORMAT IDENTIFIER
         MVC   0(5,R5),=CL5'FORM'      INDICATE INCORR FORMAT ID
         B     END                     RETURN TO CALLER
*
IOERR    EQU   *
         LA    R15,16                  RC=16 PERMANENT I/O-ERROR
         MVC   0(5,R5),=CL5'IOERR'     INDICATE I/O-ERROR
         B     END                     RETURN TO CALLER
*
OUTEX    EQU   *
         LA    R15,20                  RC=20 OUT OF VTOC
         MVC   0(5,R5),=CL5'OUTEX'     INDICATE OUT OF VTOC
         B     END                     RETURN TO CALLER
*
INVAL    EQU   *
         LA    R15,24                  RC=24 INVALID WORKAREA POINTER
         MVC   0(5,R5),=CL5'POINT'     INDICATE INVAL WORKA POINTER
*
END      EQU   *
         ERET  RC=(15)
         EJECT
QX01441  DC    F'0'
CAMLST1  CAMLST SEARCH,F4DSN,VOLSER,IECSDSL4
CAMLST2  CAMLST SEEK,CCHHR,VOLSER,IECSDSL1
F4DSN    DC    44X'04'                 DSNAME OF F4 DSCB
CCHHR    DS    0CL5                    ABSOLUTE DISK ADDRESS
CCHH     DS    0CL4                    CYLINDER AND HEAD
         DS    CL2
HH       DS    CL2                     HEAD ADDRESS
R        DS    CL1                     RECORD NUMBER
VOLSER   DS    CL6                     VOLUME SERIAL NUMBER
DSCBNO   DS    CL1                     NUMBER OF DSCB'S ON TRACK
TRKNUM   DS    CL2                     NUMBER OF TRACKS ON CYLINDER
VTOC     DC    CL4'VTOC'               TO INDICATE VTOC REQUESTED
ABSTR    DC    CL5'ABSTR'              TO INDICATE SEEK REQUEST
F4       DC    CL2'F4'                 TO INDICATE F4DSCB REQUESTED
FCON     DC    XL2'FFFF'               OWERFLOW CONSTANT
UCBALA   DC    A(ALA)                  QX01441 PARAMETER POINTER
UCBA     DC    A(UCBAREA)              QX01441 PARAMETER POINTER
ALA      DC    A(0)                    QX01441 PARAMETER
UCBAREA  DC    256X'00'                UCB AREA
RUCB     EQU   7                       UCB BASE REGISTER
RDSCB    EQU   7                       DSCB BASE REGISTER
         LTORG
         IECSDSL1 (4)
         DS    CL44                    PADD WORKAREA TO 140 CHAR
         IECSDSL1 (1)
         DSECT
         IEFUCBOB
         END   QX01442
*/* AN FOLGENDEN TAGEN WURDE DAS PROGRAMM GETESTET */
*/* NEUERSTELLUNG   12. OKT 1976            */
