         MACRO
&NAME    ERET  &REG=(14,12),&CT=,&RC=,&SA=72
.* RC=   RETURN-CODE,
.*       WIE IM RETURN-MACRO ANGEGEBEN WERDEN KANN
.* REG=  REGISTERNOTIERUNG, STANDARDWERT IST (14,12)
.*       WIE IM RETURN-MACRO ANGEGEBEN WERDEN KANN
.* CT=   T,
.*       WIE IM RETURN-MACRO ANGEGEBEN WERDEN KANN
.* SA=   LAENGE DER SAVEAREA, STANDARDWERT IST 72
         LCLC  &TRC  DEFINIERT DEN TYP VON &RC
&TRC     SETC  T'&RC  DAMIT AUF FEHLEN VON RC= GEPRUEFT WERDEN KANN
&NAME    LA    1,0(13)
         L     13,4(1)
         LR    1,2
         AIF   ('&REG' EQ 'NO').M3
         AIF   ('&TRC' EQ 'O').M1
         RETURN &REG,&CT,RC=&RC
         AGO   .M2
.M1      RETURN &REG,&CT
.M2      MNOTE *,'ERET GENERIERT'
         MEXIT
.M3      AIF   ('&TRC' EQ 'O').M4
         RETURN &CT,RC=&RC
         AGO   .M2
.M4      RETURN &CT
         AGO   .M2
         MEND
