./       ADD   NAME=REGISTER
R0       EQU   0
R1       EQU   1
R2       EQU   2
R3       EQU   3
R4       EQU   4
R5       EQU   5
R6       EQU   6
R7       EQU   7
R8       EQU   8
R9       EQU   9
R10      EQU   10
R11      EQU   11
R12      EQU   12
R13      EQU   13
R14      EQU   14
R15      EQU   15
./       ADD   NAME=SECTION
         MACRO
         SECTION &NAME,&BASE,&LOC
         LCLA  &A,&B,&C
&A       SETA  &A+1
&B       SETA  4096
&C       SETA  &B
         AIF   (N'&SYSLIST EQ 2 OR N'&SYSLIST EQ 3).GO
         MNOTE 12,'NUMBER OF PARM ENTRIES NOT EQUAL 2 OR 3'
         MEXIT
.GO      AIF   (N'&BASE LT 12).GO1
         MNOTE 8,'NUMBER OF BASE REGISTERS GREATER 11'
         MEXIT
.GO1     ANOP
&NAME    CSECT
         USING &NAME,15
         SAVE  (14,12),,*
         LA    14,SAVE&SYSNDX
         ST    13,4(14)
         ST    14,8(13)
         LR    13,14
         LR    &BASE(&A),15
         USING &NAME,&BASE(&A)
         DROP  15
         AIF   (&A EQ N'&BASE).READY
         L     14,SAVE&SYSNDX-4
.LOOP    ANOP
&A       SETA  &A+1
         LA    &BASE(&A),0(&BASE(&A-1),14)
         USING &NAME+&C,&BASE(&A)
&C       SETA  &C+&B
         AIF   (&A EQ N'&BASE).READY
         AGO   .LOOP
.READY   ANOP
         AIF   (N'&SYSLIST EQ 3).LOC
         AIF   (N'&BASE EQ 1).LOC76
.LOC80   B     SAVE&SYSNDX+72
         AGO   .CONT
.LOC76   B     SAVE&SYSNDX+72
         AGO   .CONTIN
.LOC     B     &LOC
         AIF   (N'&BASE EQ 1).CONTIN
.CONT    DC    F'4096'
.CONTIN  ANOP
         DS    0F
SAVE&SYSNDX DC 9C'SAVEAREA'
         MEND
./       ADD   NAME=THILFE
         EJECT
***
***      TESTHILFE-BEREICH  (PATCH AREA)
***
         DC    S(*)
         DC    S(*)
         DC    S(*)
         DC    S(*)
         DC    S(*)
         DC    S(*)
         DC    S(*)
         DC    S(*)
         DC    S(*)
         DC    S(*)
         DC    S(*)
         DC    S(*)
         DC    S(*)
         DC    S(*)
         DC    S(*)
         DC    S(*)
         DC    S(*)
         DC    S(*)
         DC    S(*)
         DC    S(*)
         DC    S(*)
         DC    S(*)
         DC    S(*)
         DC    S(*)
         DC    S(*)
         DC    S(*)
         DC    S(*)
         DC    S(*)
         DC    S(*)
         DC    S(*)
         DC    S(*)
         DC    S(*)
         DC    S(*)
         DC    S(*)
         DC    S(*)
         DC    S(*)
         DC    S(*)
         DC    S(*)
         DC    S(*)
         DC    S(*)
         DC    S(*)
         DC    S(*)
         DC    S(*)
         DC    S(*)
         DC    S(*)
         DC    S(*)
         DC    S(*)
         DC    S(*)
         DC    S(*)
         DC    S(*)
