./       ADD   NAME=REGISTER
R0       EQU   0
R1       EQU   1
R2       EQU   2
R3       EQU   3
R4       EQU   4
R5       EQU   5
R6       EQU   6
R7       EQU   7
R8       EQU   8
R9       EQU   9
R10      EQU   10
R11      EQU   11
R12      EQU   12
R13      EQU   13
R14      EQU   14
R15      EQU   15
./       ADD   NAME=SECTION
         MACRO
         SECTION &NAME,&BASE,&LOC
         LCLA  &A,&B,&C
&A       SETA  &A+1
&B       SETA  4096
&C       SETA  &B
         AIF   (N'&SYSLIST EQ 2 OR N'&SYSLIST EQ 3).GO
         MNOTE 12,'NUMBER OF PARM ENTRIES NOT EQUAL 2 OR 3'
         MEXIT
.GO      AIF   (N'&BASE LT 12).GO1
         MNOTE 8,'NUMBER OF BASE REGISTERS GREATER 11'
         MEXIT
.GO1     ANOP
&NAME    CSECT
         USING &NAME,15
         SAVE  (14,12),,*
         LA    14,SAVE&SYSNDX
         ST    13,4(14)
         ST    14,8(13)
         LR    13,14
         LR    &BASE(&A),15
         USING &NAME,&BASE(&A)
         DROP  15
         AIF   (&A EQ N'&BASE).READY
         L     14,SAVE&SYSNDX-4
.LOOP    ANOP
&A       SETA  &A+1
         LA    &BASE(&A),0(&BASE(&A-1),14)
         USING &NAME+&C,&BASE(&A)
&C       SETA  &C+&B
         AIF   (&A EQ N'&BASE).READY
         AGO   .LOOP
.READY   ANOP
         AIF   (N'&SYSLIST EQ 3).LOC
         AIF   (N'&BASE EQ 1).LOC76
.LOC80   B     SAVE&SYSNDX+72
         AGO   .CONT
.LOC76   B     SAVE&SYSNDX+72
         AGO   .CONTIN
.LOC     B     &LOC
         AIF   (N'&BASE EQ 1).CONTIN
.CONT    DC    F'4096'
.CONTIN  ANOP
         DS    0F
SAVE&SYSNDX DC 9C'SAVEAREA'
         MEND
./       ADD   NAME=TAGZEIT
         MACRO
&NAME    TAGZEIT
&NAME    DS    0D       SPEICHERBEREICH FUER DATUM UND UHRZEIT
XIPLDAT  DS    CL5      IPL DATUM      JJTTT  JJ = JAHR, MM = MONAT
XMONDAT  DS    CL5      MONITORDATUM   TTMMJ  TT = TAG
XZTKETTE DS    0CL15    ZEITKETTE (DATUM UND UHRZEIT UNGEPACKT)
XJAHR    DS    CL2
XMONAT   DS    CL2
XTAG     DS    CL2
XSTUNDE  DS    CL2
XMINUTE  DS    CL2
XSEKUNDE DS    CL2
XMILLSEK DS    CL3
XZTPACK  DS    PL8      ZEITKETTE GEPACKT
XMONALPH DS    CL9      MONAT ALPHABETISCH
         MEND
./       ADD   NAME=THILFE
         EJECT
***
***      TESTHILFE-BEREICH  (PATCH AREA)
***
         DC    S(*)
         DC    S(*)
         DC    S(*)
         DC    S(*)
         DC    S(*)
         DC    S(*)
         DC    S(*)
         DC    S(*)
         DC    S(*)
         DC    S(*)
         DC    S(*)
         DC    S(*)
         DC    S(*)
         DC    S(*)
         DC    S(*)
         DC    S(*)
         DC    S(*)
         DC    S(*)
         DC    S(*)
         DC    S(*)
         DC    S(*)
         DC    S(*)
         DC    S(*)
         DC    S(*)
         DC    S(*)
         DC    S(*)
         DC    S(*)
         DC    S(*)
         DC    S(*)
         DC    S(*)
         DC    S(*)
         DC    S(*)
         DC    S(*)
         DC    S(*)
         DC    S(*)
         DC    S(*)
         DC    S(*)
         DC    S(*)
         DC    S(*)
         DC    S(*)
         DC    S(*)
         DC    S(*)
         DC    S(*)
         DC    S(*)
         DC    S(*)
         DC    S(*)
         DC    S(*)
         DC    S(*)
         DC    S(*)
         DC    S(*)
./       ADD   NAME=JFCB
JFCBDSNM DS    CL44      DATENBESTANDSNAME
JFCBELNM DS    CL8       ELEMENTNAME, GENERATIONS NUMMER
JFCBTSDM DS    C         JOB MANAGEMENT
JFCBSYSC DS    CL13      SYSTEM CODE
JFCBLTYP DS    C         LABEL TYPE
JFCBOTTR DS    C         FUER AUTOMATISCHEN STEP-RESTART
JFCBFLSQ DS    CL2       BEI BAENDERN LFD. NR. DES DATENBESTANDES
JFCBVLSQ DS    CL2       LFD. NUMMER DES DATENTRAEGERS
JFCBMASK DS    CL8       DATEN MANAGEMENT MASKE
JFCBCRDT DS    CL3       ERSTELLUNGSDATUM
JFCBXPDT DS    CL3       VERFALLDATUM
JFCBIND1 DS    C         INDICATOR BYTE 1
JFCBIND2 DS    C         INDICATOR BYTE 2
JFCBUFNO DS    0C        ANZAHL DER PUFFER
JFCBUFRQ DS    C         BEI QTAM ANZAHL PUFFER FUER JEDE LINIE
JFCBFTEK DS    0C        GAM: ANZAHL DER IOB'S
JFCBHIAR DS    0C        ART DES HAUPTSPEICHERS
JFCBFALN DS    C         PUFFER AUSRICHTUNG (WORT ODER DOPPELWORTGR.)
JFCBUFL  DS    CL2       PUFFER LAENGE
JFCEROPT DS    C         FEHLEROPTIONEN
JFCTRTCH DS    0C        BEI 7-KANAL BAENDERN SCHREIBTECHNIK
JFCKEYLE DS    0C        BEI PLATTEN SCHLUESSEL-LAENGE
JFCMODE  DS    0C        BEI KARTEN KARTENCODE
JFCSTACK DS    0C        BEI KARTEN ABLAGESTEUERUNG
JFCPRTSP DS    0C        BEIM DRUCKER ZEILENABSTAND
JFCCODE  DS    C         BEI LOCHSTREIFEN UEBERSETZUNGSCODE
JFCDEN   DS    C         ZEICHENDICHTE BEI BAENDERN
JFCLIMCT DS    CL2       BEI BDAM SUCHLIMIT
JFCDSORG DS    CL3       DATENBESTANDSORGANISATION
JFCRECFM DS    C         SATZFORMAT
JFCOPTCD DS    C         OPTION CODE
JFCBLKSI DS    CL2       MAXIMALE BLOCKLAENGE
JFCLRECL DS    CL2       LOGISCHE SATZLAENGE
JFCNCP   DS    C         ANZAHL KANALPROGRAMME
JFCNTM   DS    C         ANZAHL SPUREN HAUPTINDEX
JFCRKP   DS    CL2       RELATIVE SCHLUESSEL POSITION'NORMALES SEGMENT'
JFCCYLOF DS    C         ANZAHL SPUREN ZYLINDERUEBERL'NORMALES SEGMENT'
JFCDBUFN DS    C         RESERVIERT
JFCINTVL DS    C         BEI QTAM INTERVALL IN SEKUNDEN
         ORG   JFCRKP
JFCUCSID DS    CL4       NAME DES UCS                     'UCS SEGMENT'
JFCUCSOP DS    C         OPERATION DS UCS                 'UCS SEGMENT'
JFCCPRI  DS    C         BEI QTAM PRIORITAET SENDE U. EMPFANGS OPERAT.
JFCSOWA  DS    CL2       BEI QTAM LAENGE DES ARBEITSBEREICHS
         DS    C         RESERVIERT
JFCBNVOL DS    C         ANZAHL DER DATENTRAEGER
JFCBVOLS DS    CL30      NAMEN DER ERSTEN 5 DATENTRAEGER
JFCBEXTL DS    C         RESERVIERT
JFCBEXAD DS    CL3       RELATIVE SATZADR. WEITERER DATENTRAEGERNAMEN
JFCBPQTY DS    CL3       PRIMAERE PLATZZUORDNUNG BEI DIREKTEM ZUGRIFF
JFCBCTRI DS    C         SPACE PARAMETER
JFCBSQTY DS    CL3       SEKUNDAERE PLATZZUORDNG. B. DIREKTEM ZUGRIFF
         DS    C         RESERVIERT
JFCBDQTY DS    CL3       PLATZBEDARF FUER INHALTSVERZ. ODER INDEX
JFCBSPNM DS    CL3       ADRESSE DES JFCB
JFCBABST DS    CL2       RELATIVE ADRESSE DER ERSTEN ZUGEORDNETEN SPUR
JFCBSBNM DS    CL3       HAUPTSPEICHERADRESSE JFCB F. PLATZZUORDNUNG
JFCBDLRH DS    CL3       DURCHSCHNITTLICHE DATENLAENGE
JFCBVLCT DS    C         ZAEHLER DER DATENTRAEGER
JFCBSPTN DS    C         ANZAHL DER BENUTZTEN SPUREN, WENN GESPLITTET
