./       ADD   NAME=REGISTER
R0       EQU   0
R1       EQU   1
R2       EQU   2
R3       EQU   3
R4       EQU   4
R5       EQU   5
R6       EQU   6
R7       EQU   7
R8       EQU   8
R9       EQU   9
R10      EQU   10
R11      EQU   11
R12      EQU   12
R13      EQU   13
R14      EQU   14
R15      EQU   15
./       ADD   NAME=TAGZEIT
         MACRO
&NAME    TAGZEIT
&NAME    DS    0D       SPEICHERBEREICH FUER DATUM UND UHRZEIT
XIPLDAT  DS    CL5      IPL DATUM      JJTTT  JJ = JAHR, MM = MONAT
XMONDAT  DS    CL5      MONITORDATUM   TTMMJ  TT = TAG
XZTKETTE DS    0CL15    ZEITKETTE (DATUM UND UHRZEIT UNGEPACKT)
XJAHR    DS    CL2
XMONAT   DS    CL2
XTAG     DS    CL2
XSTUNDE  DS    CL2
XMINUTE  DS    CL2
XSEKUNDE DS    CL2
XMILLSEK DS    CL3
XZTPACK  DS    PL8      ZEITKETTE GEPACKT
XMONALPH DS    CL9      MONAT ALPHABETISCH
         MEND
