 ./        ADD   NAME=INVENTAR,LIST=ALL
         PRINT OFF
         MACRO
&NAME    TACLOSE
&NAME    CLOSE (INVDATEI)
         DEQ   (MAJOR,MINOR,,SYSTEM),RET=HAVE
         MEND
         MACRO
&NAME    TAOPEN &TYP
         AIF   ('&TYP' NE 'WRITE').A1
&NAME    ENQ   (MAJOR,MINOR,E,,SYSTEM),RET=NONE
         MODCB ACB=INVDATEI,MACRF=(OUT)
         OPEN  (INVDATEI)
         MEXIT
.A1      AIF   ('&TYP' NE 'READ').A2
&NAME    ENQ   (MAJOR,MINOR,S,,SYSTEM),RET=NONE
         MODCB ACB=INVDATEI,MACRF=(IN)
         OPEN  (INVDATEI)
         MEXIT
.A2      MNOTE 9,'FALSCHER TAOPEN-TYP, ENTWEDER "READ" ODER "WRITE"'
         MEND
         MACRO
&NAME    UPRUF &UP
&NAME    L     15,=A(&UP)
         BALR  14,15
         MEND
         MACRO
&NAME    OUTPUT &F,&L,&P
         LOESCH DRUCKZ,DRUCKZ,C' '      DRUCKZEILE LOESCHEN
         MVC   DRUCKZ+5(132),&F
         LA    R15,5+&L
         STCM  R15,3,DRUCKZ
         AIF   ('&P' EQ '').M5
         MVI   DRUCKZ+4,X'8B'           NEUE SEITE
         AGO   .M6
.M5      ANOP
         MVI   DRUCKZ+4,X'09'           SPACE 1 LINE AFTER PRINTING
.M6      ANOP
         CLI   INVLIST,C'P'
         BNE   @&SYSNDX.A
         PUT   D001OS99,DRUCKZ
         B     @&SYSNDX.B
@&SYSNDX.A PUT D002OS99,DRUCKZ
@&SYSNDX.B DS  0H
         MEND
         MACRO
&NAME    LOESCH &VON,&BIS,&L
&NAME    MVI   &VON,&L
         MVC   &VON+1(&BIS-&VON+L'&BIS-1),&VON
         MEND
         MACRO
&NAME    LISTDEF &FL
         LCLA  &A,&B
&A       SETA  1
.W1      AIF   (&A GT N'&FL).W2
&B       SETA  &B+1+&FL(&A)
&A       SETA  &A+1
         AGO   .W1
.W2      ANOP
&B       SETA  &B-1
&NAME    DS    0CL&B
&A       SETA  1
.W3      AIF   (&A GT N'&FL).W4
&NAME.&A DS    CL&FL(&A)
         DS    C
&A       SETA  &A+1
         AGO   .W3
.W4      MEND
         MACRO
&N       ISPLINK &P,&R0=*+24,&R4=*+20,&R8=*+16,&R12=*+12,&R16=*+8,     *
               &R20=*+4
         LCLA  &A,&X,&XTAB(100),&Y,&OFFS
         LCLC  &NM,&V
&NM      SETC  '$&SYSNDX'
&A       SETA  N'&P
         AIF   (NOT (&A LT 2)).ELS1000
         MNOTE 8,'&P LESS 2 PARAMETERS'
         MEXIT
.ELS1000 ANOP
&N       DS    0H
         CNOP  0,4
&NM      BAL   1,&NM.A
&X       SETA  1
.THR1001 AIF   (&X GT &A-1).RHT1001
&V       SETC  '&P(&X)'
         AIF   (NOT ('&V'(1,1) NE '''')).ELS1002
         DC    A(&V)
         AGO   .END1002
.ELS1002 ANOP
&XTAB(&X) SETA 1
&OFFS    SETA  4*&A+4+&Y
&Y       SETA  &Y+K'&P(&X)-2
         DC    A(&NM+&OFFS)
.END1002 ANOP
&X       SETA  &X+1
         AGO   .THR1001
.RHT1001 ANOP
&V       SETC  '&P(&X)'
         AIF   (NOT ('&V'(1,1) NE '''')).ELS1003
         DC    X'80',AL3(&V)
         AGO   .END1003
.ELS1003 ANOP
&XTAB(&X) SETA 1
&OFFS    SETA  4*&A+4+&Y
&Y       SETA  &Y+K'&P(&X)-2
         DC    X'80',AL3(&NM+&OFFS)
.END1003 ANOP
&X       SETA  1
.THR1004 AIF   (&X GT &A).RHT1004
         AIF   (NOT (&XTAB(&X) EQ 1)).ELS1005
&V       SETC  '&P(&X)'
         DC    C&V
.ELS1005 ANOP
&X       SETA  &X+1
         AGO   .THR1004
.RHT1004 ANOP
&NM.A    L     15,=V(ISPLINK)
         BALR  14,15
         B     *+4(15)
         B     &R0
         B     &R4
         B     &R8
         B     &R12
         B     &R16
         B     &R20
         MEND
         MACRO
&NAME    DISPLAY &PANEL,&CONTROL,&RETURN,&PRUEF,&ACTION,&PF24
         LCLA  &ANZ
         LCLC  &C
&C       SETC  '&PANEL'.'       '
&C       SETC  '&C'(1,8)
&NAME    CLI   &CONTROL,C'X'
         BNE   *+8(15)
         B     *+28
         B     @&SYSNDX.D               0
         B     &RETURN                  4
         B     &RETURN                  8
         B     &RETURN                  12
         B     &RETURN                  16
         B     &RETURN                  20
@&SYSNDX DS    0H
         AIF   ('&PF24' EQ '').LAB5
         ISPLINK ('VGET','(ZPF24)')
         MVC   ZPF24SAV,ZPF24
         MVC   ZPF24,=CL40&PF24
         ISPLINK ('VPUT','(ZPF24)')
.LAB5    ANOP
         ISPLINK ('DISPLAY','&C',MSGNUM)
         AIF   ('&PF24' EQ '').LAB6
         ST    15,DOWO+4
         MVC   ZPF24,ZPF24SAV
         ISPLINK ('VPUT','(ZPF24)')
         L     15,DOWO+4
.LAB6    ANOP
@&SYSNDX.A DS  0H
         AIF   (0 EQ N'&ACTION).LAB2
         ST    15,DOWO+4
         LOESCH INVZCMD,INVZCMD,C' '
         MVC   DOWO(L'F79),F79
         ISPLINK ('VCOPY','(ZCMD)',DOWO,INVZCMD,'MOVE')
&ANZ     SETA  1
.LAB0    AIF   (&ANZ GT N'&ACTION).LAB1
&C       SETC  '&ANZ'
         CLC   =C&ACTION(&ANZ,1),INVZCMD
         BNE   @&SYSNDX.C&C
         UPRUF &ACTION(&ANZ,2)
         B     @&SYSNDX
@&SYSNDX.C&C DS 0H
&ANZ     SETA  &ANZ+1
         AGO   .LAB0
.LAB1    ANOP
         L     15,DOWO+4
.LAB2    ANOP
         MVC   MSGNUM,=CL8' '
         MVC   MSGFELD,=CL8' '
         C     15,=F'8'
         BE    &RETURN
&ANZ     SETA  1
.LAB3    AIF   (&ANZ GT N'&PRUEF).LAB4
         UPRUF &PRUEF(&ANZ)
         B     @&SYSNDX.B
&ANZ     SETA  &ANZ+1
         AGO   .LAB3
.LAB4    ANOP
         XR    15,15
         B     @&SYSNDX.D
@&SYSNDX.B DS  0H
         AIF   ('&PF24' EQ '').LAB7
         ISPLINK ('VGET','(ZPF24)')
         MVC   ZPF24SAV,ZPF24
         MVC   ZPF24,=CL40&PF24
         ISPLINK ('VPUT','(ZPF24)')
.LAB7    ANOP
         ISPLINK ('DISPLAY',0,MSGNUM,MSGFELD)
         AIF   ('&PF24' EQ '').LAB8
         ST    15,DOWO+4
         MVC   ZPF24,ZPF24SAV
         ISPLINK ('VPUT','(ZPF24)')
         L     15,DOWO+4
.LAB8    ANOP
         B     @&SYSNDX.A
@&SYSNDX.D DS  0H
         MEND
         MACRO
&NAME    D191D &PR=DSCT
         SPACE 2
*---------------------------------------------------------------------
*        DSECT FUER INFO-DATEI
*---------------------------------------------------------------------
         SPACE 2
*  FOLGENDE SATZARTEN SIND IN DER INFO-DATEI:
*  -----------------------------------------
         SPACE 2
*  GEHALTS-TABELLEN-SAETZE:     KENNZEICHEN = 'GH'
*
*  --->  ABTEILUNGS-SAETZE:     'AB'
*  --->  BEREICHS-SAETZE  :     'BE'
*  --->  KOSTSTELLENSAETZE:     'KO'
         SPACE 2
*  TRANID-GRUPPEN-SAETZE  :     KENNZEICHEN = 'GR'
         SPACE 2
*  TRANSAKTIONS-SAETZE    :     KENNZEICHEN = 'TR'
         SPACE 2
*  INFORMATIONS-SAETZE    :     KENNZEICHEN = 'DATUMS-KOMPLEMENT'
         SPACE 5
&NAME    DSECT
         SPACE 2
&PR.REC  DS    0CL90                 GESAMT-SATZ
         SPACE 2
&PR.KEY  DS    CL11                  SCHLUESSEL-FELD
&PR.DATA DS    CL79                  DATEN-TEIL
         EJECT
*----------------------------------------------------------------------
*              GEHALTS-TABELLENSAETZE
*----------------------------------------------------------------------
         SPACE 2
         ORG   &PR.KEY               SCHLUESSELFELD
         SPACE 1
&PR.KZGH DS    CL2                   KENNZEICHEN KONST. 'GH'
&PR.FIRM DS    CL2                   FIRMA Z. ZT. '00'
&PR.KZSA DS    CL2                   SATZKENNZEICHEN 'AB','BE','KO'
&PR.NR   DS    CL4                   ABTLG.-, BEREICHS- ODER KOST-NR
         DS    CL1                   UNBELEGT - KONST. BLANK
         SPACE 2
         ORG   &PR.DATA              DATENFELD
         SPACE 1
*                                    ---> ABTEILUNGS-SAETZE
*
&PR.BER# DS    CL4                   BEREICHSNUMMER DER ABTEILUNG
&PR.ABTT DS    CL50                  ABTEILUNGSTEXT (BEZEICHNUNG)
&PR.ABTK DS    CL4                   ABTEILUNGS-KURZTEXT
         DS    CL21                  UNBELEGT - KONST. BLANK
         SPACE 2
         ORG   &PR.DATA              DATENFELD
         SPACE 1
*                                    ---> BEREICHS-SAETZE
*
         DS    CL4                   UNBELEGT - KONST. BLANK
&PR.BER  DS    0CL50                 BEREICHSTEXT
&PR.BERC DS    CL8                   KONST. 'BEREICH '
&PR.BERT DS    CL42                  BEREICHSBEZEICHNUNG
         DS    CL25                  UNBELEGT - KONST. BLANK
         SPACE 2
         ORG   &PR.DATA              DATENFELD
         SPACE 1
*                                    ---> KOSTENSTELLEN-SAETZE
*
&PR.ABT  DS    CL4                   ABTEILUNGSNUMMER DER KOSTENST.
&PR.KOST DS    CL25                  KOSTENSTELLENTEXT (BEZEICHNUNG)
         DS    CL50                  UNBELEGT - KONST. BLANK
         EJECT
*----------------------------------------------------------------------
*              INFORMATIONS-EINTRAEGE
*----------------------------------------------------------------------
         SPACE 2
         ORG   &PR.KEY               SCHLUESSELFELD
         SPACE 1
&PR.DATK DS    CL6                   DATUMSKOMPLEMENT VON JJMMTT
&PR.ENTK DS    CL2                   KOMPLEMENT ENTRY-NUMMER
&PR.REC# DS    CL1                   LFD. SATZ-NUMMER DES EINTRAGS
         SPACE 2
         ORG   &PR.DATA              DATENFELD
         SPACE 1
&PR.ENTR DS    CL79                  ENTRY-TEXT DER LFD. NUMMER
         EJECT
*----------------------------------------------------------------------
*              TRANSAKTIONS-SAETZE
*----------------------------------------------------------------------
         SPACE 2
         ORG   &PR.KEY               SCHLUESSELFELD
         SPACE 1
&PR.KZTR DS    CL2                   KZ. TRANSAKTIONSSATZ - KONST. 'TR'
&PR.TRAN DS    CL4                   TRANSAKTIONS-CODE
&PR.TRGR DS    CL4                   ZUGEHOERIG ZU TRANSAKTIONS-GRUPPE
&PR.TRSA DS    CL1                   LFD. SATZ-NUMMER
         SPACE 2
         ORG   &PR.DATA              DATENFELD
         SPACE 1
&PR.KZEI DS    CL1                   KZ. EXTERNE (E)/INTERNE(I) TRANID
&PR.TXTT DS    CL74                  TRANSAKTIONS-KLARTEXT
&PR.TR0  DS    0CL4                  KONST. BLANK FALLS NICHT SATZ=0
         DS    CL1                   KONST. BLANK
&PR.PROF DS    CL3                   PROFIL-VERSION BEI SATZ=0
         SPACE 5
*----------------------------------------------------------------------
*              TRANSAKTIONS-GRUPPENSAETZE
*----------------------------------------------------------------------
         SPACE 2
         ORG   &PR.KEY               SCHLUESSELFELD
         SPACE 1
&PR.KZGR DS    CL2                   KZ. GRUPPENSATZ - KONST. 'GR'
&PR.GRP  DS    CL4                   TRANSAKTIONS-GRUPPE
         DS    CL5                   UNBELEGT - KONST. C'00000'
         SPACE 2
         ORG   &PR.DATA              DATENFELD
         SPACE 1
         DS    CL1                   UNBELEGT - KONST. BLANK
&PR.TXTG DS    CL70                  TRANSAKTIONS-GRUPPEN-TEXT
&PR.VABT DS    CL4                   ABTLG-NR VERANTW. FACHABTLG
&PR.VBO  DS    CL4                   ABTLG-NR BETREUENDER BO-BEREICH
         ORG
&PR.ENDE EQU   *                     ENDE DER DSECT
         SPACE 3
&PR.RECL EQU   &PR.ENDE-&NAME        SATZ-LAENGE
         SPACE 2
&SYSECT  CSECT
         MEND
         MACRO
&NAME    D137D &PR=IND
&NAME    DSECT
&PR.KEY  DS    0CL21            X       SCHLUESSEL DER INVENTARDATEI
PRODKZ   DS    CL4              X       PRODUKTGRUPPE
TYP      DS    CL4              X       TYP-NUMMER
MODELL   DS    CL3              X       MODELL-NUMMER
MANR     DS    CL7              X       MASCHINEN-NUMMER
LFDNR    DS    PL3              X       LAUFENDE NUMMER
TYPBEZ   DS    CL30             X       TYPBEZEICHNUNG
HERSTELL DS    CL8              X       HERSTELLER
FEATURE  DS    0CL36                    FEATURE DES PRODUKTES
FANZ     DS    PL2                      FEATURE-ANZAHL
FTYP     DS    CL4              X       FEATURE-TYP
FTYPBEZ  DS    CL30             X       FEATURE-TYPBEZEICHNUNG
         ORG   FEATURE
FEATURES DS    10CL36                   TABELLE DER FEATURES
ECLEVEL  DS    CL3                      EC-LEVEL DES PRODUKTES
INSTKZ   DS    CL1              X       INSTALLATIONS-ZUSTAND
DATLIEF  DS    CL8              X       GEPLANTER LIEFERTERMIN
DATINST  DS    CL8              X       INSTALLATIONSDATUM
DATBEGIN DS    CL8              X       MIETBEGINN/KAUFDATUM
DATENDE  DS    CL8              X       MIETENDE/VERKAUFSDATUM
DATKUEND DS    CL8              X       KUENDIGUNGSDATUM
DATVERLG DS    CL3                      VERLAENGERUNGSZEITRAUM
ABLAGENR DS    CL10             X       MIETSCHEIN-/ABLAGE-NR
BESOKZ   DS    CL1              X       MIETE-KAUF-KENNZEICHEN
WARTKZ   DS    CL1              X       WARTUNGS-KENNZEICHEN
&PR.AKZ  DS    C                        ALLGEM. KENNZEICHEN
KZEIT    DS    CL2                      ANZAHL TAGE KUENDIGUNGSZEIT
TZEIT    DS    CL2                      ANZAHL TAGE TESTZEIT
KZGEW    DS    C                        GEWAEHRLEISTUNG
KZGEB    DS    C                        GEBAEUDELIZENZ
KZINS    DS    C                        INSTALLATIONSLIZENZ
KZZSER   DS    C                        ZENTRALER SERVICE
KZZSEDAT DS    CL8                      ZENTRALER SERVICE DATUM
KZOSER   DS    C                        OERTLICHER SERVICE
KZOSEDAT DS    CL8                      OERTLICHER SERVICE DATUM
KZOUNT   DS    C                        OERTLICHE UNTERSTUETZUNG
KZOUNDAT DS    CL8                      ZENTRALER SERVICE DATUM
KPREIS   DS    CL14             X       KAUFPREIS
         DS    C
ZEITRAUM DS    2CL6             X       GUELTIGKEITSZEITRAUM
MPREIS   DS    CL12             X       ABSCHREIBUNGSRATEN/MIETPREIS
WPREIS   DS    CL12             X       WARTUNGSKOSTEN
KOSTENST DS    CL4              X       KOSTENSTELLE
KOSTENTR DS    CL4              X       KOSTENTRAEGER
&PR.FAKZ DS    CL2                      FIRMENKENNZEICHEN
&PR.ABTL DS    CL4              X       BEZEICHNUNG DER ABTEILUNG
&PR.ORT  DS    CL8              X       INSTALLATIONSORT
&PR.BEN  DS    CL12             X       BENUTZER
&PR.TEL  DS    CL13             X       TELEFON
&PR.CUA  DS    CL5              X       GERAETEADRESSE
&PR.LEIT DS    CL7              X       LEITUNGSNUMMER
&PR.PFLG DS    CL8              X       USERID DES ERSTELLER DES SATZES
&PR.PFLD DS    CL6              X       DATUM DER ERSTELLUNG DES SATZES
&PR.INVN DS    CL10                     INVENTARNUMMER
&PR.AART DS    CL2                      ABSCHREIBUNGSART
&PR.ABAS DS    CL14                     ABSCHREIBUNGSBASIS
&PR.ARAT DS    CL14                     ABSCHREIBUNGSRATE
&PR.ABEG DS    CL8                      ABSCHREIBUNGSBEGINN
&PR.AEND DS    CL8                      ABSCHREIBUNGSENDE
&PR.END  EQU   *
&SYSECT  CSECT
         MEND
         MACRO
         EQUREG
R0       EQU   0
R1       EQU   1
R2       EQU   2
R3       EQU   3
R4       EQU   4
R5       EQU   5
R6       EQU   6
R7       EQU   7
R8       EQU   8
R9       EQU   9
R10      EQU   10
R11      EQU   11
R12      EQU   12
R13      EQU   13
R14      EQU   14
R15      EQU   15
         MEND
         MACRO
         DDICT &N,&D,&L,&C,&B,&T
         DC    CL8'&N'                  DATA FIELD NAME
         DC    Y(X'&D')                 DATA FIELD DISPLACEMENT
         DC    AL1(&L)                  DATA FIELD LENGTH
         DC    CL1'&C '                 CONTINUATION CHARACTER
         DC    CL24&B                   BEZEICHNUNG
         DC    CL24&T                   TITEL
         MEND
         MACRO
&NAME    CVXP  &VON,&NACH
&NAME    CLC   &VON,=X'80000000'
         BNE   *+14
         ZAP   &NACH,=P'-1'
         B     *+18
         L     R7,&VON
         CVD   R7,DOWO
         ZAP   &NACH,DOWO
         MEND
         MACRO
&NAME    CVPX  &VON,&NACH
&NAME    CP    &VON,=P'-1'
         BNE   *+14
         MVC   &NACH,=X'80000000'
         B     *+18
         ZAP   DOWO,&VON
         CVB   R7,DOWO
         ST    R7,&NACH
         MEND
         MACRO
&NAME    QSORT &EL1,&EL2,&ELL,&SDISPL,&SLNG **** STABREY 30.12.83 ****
*        &EL1     =  ADRESSE DES ERSTEN ELEMENTES
*        &EL2     =  ADRESSE DES LETZTEN ELEMENTES
*        &ELL     =  LAENGE EINES ELEMENTES
*        &SDISPL  =  DISTANZ DES SORTIERFELDES
*        &SLNG    =  LAENGE DES SORTIERFELDES
*
*        ES MUESSEN FOLGENDE RANDBEDINGUNGEN GELTEN:
*        1.  0 < &SDISPL + &SLNG <= &ELL <= 256
*        2.  ANZAHL ELEMENTE <= 16.777.216 = 2**24
*        3.  &EL2 = (ANZAHL ELEMENTE  -  1) * &ELL  +  &EL1
*
*        INITIALISIERUNG
         STM   0,15,$&SYSNDX.S          REGISTER SICHERN
         LA    0,1                      ANZAHL SORT-TEIL-TAB'S = 1
         ST    0,$&SYSNDX.S+4*16
         LA    0,&EL1                   ADRESSE ERSTES ELEMENT
         ST    0,$&SYSNDX.S+4*17
         LA    0,&EL2                   ADRESSE LETZTES ELEMENT
         ST    0,$&SYSNDX.S+4*18
         LA    0,&ELL                   LAENGE EINES TABELLENELEMENTES
         ST    0,$&SYSNDX.S+4*19
         LA    0,&SDISPL                SORTFELDDISPLACEMENT
         ST    0,$&SYSNDX.S+4*20
         LA    0,&SLNG                  SORTIERFELDLAENGE
         ST    0,$&SYSNDX.S+4*21
         BALR  15,0                     BASISREGISTER
         USING *,15
         CLC   $&SYSNDX.S+4*18(4),$&SYSNDX.S+4*17    2 ELEMENTE VORH.?
         BNH   $&SYSNDX.Z               NEIN, FERTIG
         L     1,$&SYSNDX.S+4*19        LAENGE EINES SORT-TAB-ELEMENTES
         L     6,$&SYSNDX.S+4*20        SORTIERFELD-DISPLACEMENT
         L     7,$&SYSNDX.S+4*21        SORTIERFELD-LAENGE
         BCTR  7,0                      WEGEN EX-CLC
         LR    10,1
         BCTR  10,0                     WEGEN EX-XC
*        SORT-TAB VOM STACK LADEN
$&SYSNDX.A L   8,$&SYSNDX.S+4*16        ANZAHL SORT-TEIL-TAB'S
         LTR   8,8                      SORT-TEIL-TAB'S VORHANDEN?
         BZ    $&SYSNDX.Z               NEIN, FERTIG
         BCTR  8,0
         ST    8,$&SYSNDX.S+4*16        1 SORT-TAB WENIGER
         SLL   8,3
         LA    8,$&SYSNDX.S+4*17(8)     ANFANG DES SORT-STACK
         L     2,0(8)                   ANFANG SORT-TAB
         L     5,4(8)                   ENDE SORT-TAB
         LA    13,0(5,1)
         SR    13,2                     LAENGE SORT-TAB
         XR    12,12
         LA    14,0(1,1)
         DR    12,14                    ANZAHL ELEMENTE / 2
         LR    12,1
         MR    12,12                    LAENGE SORT-TAB / 2
         LA    3,0(2,13)                MITTLERES ELEMENT
         LR    4,5                      LETZTES ELEMENT
         CLR   3,4
         BE    $&SYSNDX.H               NUR EIN ELEMENT, NICHT TAUSCHEN
         EX    10,$&SYSNDX.J            ELEMENTE AUSTAUSCHEN
         EX    10,$&SYSNDX.K
         EX    10,$&SYSNDX.J
$&SYSNDX.H LR  3,2                      UNTERER TEILPUNKT
         LR    4,5                      OBERER TEILPUNKT
         LA    11,0(6,3)
         LA    12,0(6,4)
*        AUFTEILEN EINER SORT-TAB
$&SYSNDX.B CLR 3,4                      SORT-TAB GETEILT?
         BE    $&SYSNDX.F               JA
         EX    7,$&SYSNDX.I
         BNL   $&SYSNDX.C               AUSTAUSCHEN
         AR    3,1                      1 ELEMENT VORWAERTS
         AR    11,1
         B     $&SYSNDX.B
$&SYSNDX.C EX  10,$&SYSNDX.J
         EX    10,$&SYSNDX.K
         EX    10,$&SYSNDX.J
         SR    4,1
         SR    12,1
$&SYSNDX.D CLR 3,4                      SORT-TAB GETEILT?
         BE    $&SYSNDX.F               JA
         EX    7,$&SYSNDX.I
         BNL   $&SYSNDX.E               AUSTAUSCHEN
         SR    4,1                      1 ELEMENT VORWAERTS
         SR    12,1
         B     $&SYSNDX.D
$&SYSNDX.E EX  10,$&SYSNDX.J
         EX    10,$&SYSNDX.K
         EX    10,$&SYSNDX.J
         AR    3,1
         AR    11,1
         B     $&SYSNDX.B
*        TEIL-SORT-TAB AUF DEN STACK, DIE GROESSERE ZUERST
$&SYSNDX.F LR  14,5
         SR    14,4                     LAENGE DER RECHTEN SORT-TAB
         LR    13,3
         SR    13,2                     LAENGE DER LINKEN SORT-TAB
         AR    4,1                      ANFANG DER RECHTEN SORT-TAB
         SR    3,1                      ENDE DER LINKEN SORT-TAB
         CLR   13,14                    LINKE SORT-TAB>RECHTE SORT-TAB?
         BH    $&SYSNDX.G               JA
         CLR   4,5                      RECHTE SORT-TAB LEER?
         BNL   $&SYSNDX.A               JA
         STM   4,5,0(8)
         LA    8,8(8)
         L     9,$&SYSNDX.S+4*16
         LA    9,1(9)
         ST    9,$&SYSNDX.S+4*16
         CLR   2,3                      LINKE SORT-TAB LEER?
         BNL   $&SYSNDX.A               JA
         STM   2,3,0(8)
         LA    8,8(8)
         L     9,$&SYSNDX.S+4*16
         LA    9,1(9)
         ST    9,$&SYSNDX.S+4*16
         B     $&SYSNDX.A               NEUE SORT-TAB BEARBEITEN
$&SYSNDX.G CLR 2,3                      LINKE SORT-TAB LEER?
         BNL   $&SYSNDX.A               JA
         STM   2,3,0(8)
         LA    8,8(8)
         L     9,$&SYSNDX.S+4*16
         LA    9,1(9)
         ST    9,$&SYSNDX.S+4*16
         CLR   4,5                      RECHTE SORT-TAB LEER?
         BNL   $&SYSNDX.A               JA
         STM   4,5,0(8)
         LA    8,8(8)
         L     9,$&SYSNDX.S+4*16
         LA    9,1(9)
         ST    9,$&SYSNDX.S+4*16
         B     $&SYSNDX.A               NEUE SORT-TAB BEARBEITEN
$&SYSNDX.I CLC 0(0,11),0(12)
$&SYSNDX.J XC  0(0,3),0(4)
$&SYSNDX.K XC  0(0,4),0(3)
$&SYSNDX.S DS  65A
$&SYSNDX.Z LM  0,15,$&SYSNDX.S
         DROP  15
         MEND
         MACRO
&NAME    BSUCH &EL1,&EL2,&ELL,&SDISPL,&SLNG,&SUCH **** STABREY 30.12.83
*        &EL1     =  ADRESSE DES ERSTEN ELEMENTES
*        &EL2     =  ADRESSE DES LETZTEN ELEMENTES
*        &ELL     =  LAENGE EINES ELEMENTES
*        &SDISPL  =  DISTANZ DES SORTIERFELDES
*        &SLNG    =  LAENGE DES SORTIERFELDES
*        &SUCH    =  ADRESSE DES SUCHBEGRIFFS
*
*        ES MUSS FOLGENDE RANDBEDINGUNG GELTEN:
*            &EL2 = (ANZAHL ELEMENTE - 1) * &ELL + &EL1
*
*        RETURNCODES :
*        R15 = 0     SUCHBEGRIFF GEFUNDEN, R1 = TAB-ELEMENT-ADRESSE
*        R15 = 4     SUCHBEGRIFF NICHT GEFUNDEN,
*                    R1 = ADRESSE DES NAECHSTHOEHEREN TAB-ELEMENTES
*        R15 = 8     TABELLEN-FORMAT FEHLER
*
*        INITIALISIERUNG
         STM   0,15,$&SYSNDX.S          REGISTER SICHERN
         LA    0,&EL1
         ST    0,$&SYSNDX.S+4*16
         LA    0,&EL2
         ST    0,$&SYSNDX.S+4*17
         LA    0,&ELL
         ST    0,$&SYSNDX.S+4*18
         LA    0,&SDISPL
         ST    0,$&SYSNDX.S+4*19
         LA    0,&SLNG
         ST    0,$&SYSNDX.S+4*20
         LA    0,&SUCH
         ST    0,$&SYSNDX.S+4*21
         BALR  14,0                     BASISREGISTER
         USING *,14
         CLC   $&SYSNDX.S+4*17(4),$&SYSNDX.S+4*16  EIN ELEMENT VORH.?
         BL    $&SYSNDX.W               NEIN, ABBRUCH
         LM    2,7,$&SYSNDX.S+4*16
         LR    13,3                     ENDADRESSE
         SR    13,2                     - ANFANGSADRESSE
         XR    12,12                    WEGEN DR-BEFEHL
         DR    12,4                     / ELEMENTLAENGE
         LTR   12,12                    REST = 0 ?
         BNZ   $&SYSNDX.Z               NEIN, ABBRUCH
         LA    11,1(13)                 R13 = ANZAHL ELEMENTE - 1
         XR    10,10
         BCTR  6,0                      WEGEN EX-CLC
*        BINAERES SUCHEN
$&SYSNDX.A CLR 10,11                    ELEMENT NICHT GEFUNDEN ?
         BE    $&SYSNDX.Y               SO IST ES
         LR    9,11                     INTERVALL HALBIEREN
         SR    9,10
         SRL   9,1                      / 2
         AR    9,10
         LR    13,9
         MR    12,4
         AR    13,2
         AR    13,5
         EX    6,$&SYSNDX.V             SUCHBEGRIFF ? TABELLENELEMENT
         BE    $&SYSNDX.X               SUCHBEGRIFF = TABELLENELEMENT
         BL    $&SYSNDX.B               SUCHBEGRIFF < TABELLENELEMENT
         LA    10,1(9)                  SUCHBEGRIFF > TABELLENELEMENT
         B     $&SYSNDX.A
$&SYSNDX.B LR  11,9
         B     $&SYSNDX.A
$&SYSNDX.S DS  22A
$&SYSNDX.V CLC 0(0,7),0(13)
$&SYSNDX.W LA  15,4
         L     1,$&SYSNDX.S+4*16
         B     $&SYSNDX.X+6
$&SYSNDX.X XR  15,15
         LR    1,13
         SR    1,5
         L     0,$&SYSNDX.S
         B     $&SYSNDX.Z+8
$&SYSNDX.Y LA  15,4
         XR    10,10
         MR    10,4
         LA    1,0(11,2)
         L     0,$&SYSNDX.S
         B     $&SYSNDX.Z+8
$&SYSNDX.Z LA  15,8
         LM    0,1,$&SYSNDX.S
         LM    2,14,$&SYSNDX.S+4*2
         DROP  14
         MEND
         MACRO
         ABTLTAB &ABT,&KOST
         L R8,ADDRKOST+4
         $IF LT
            C R8,ADDRKOST+8
         $THEN
            MVC TABKOSTN-TABKOST(L'TABKOSTN,R8),=C&KOST
            MVC TABKOSTA-TABKOST(L'TABKOSTA,R8),=C&ABT
            LA R8,L'TABKOST(R8)
            ST R8,ADDRKOST+4
            LA R7,4
         $ELSE
            LA R7,0
         $BEND
         MEND
         MACRO
&LABEL   $WHILE &CC
         GBLA  &AG53
         GBLB  &BG53,&BG54
         LCLC  &CL0
&CL0     SETC  '&CC'
         AIF   (NOT (NOT &BG53)).ELS1000
         $$OUV ,,O,U,V,@WHIL(E),(@,T,E,D,R,G,Y,A,X,L,Z,B)
.ELS1000 ANOP
         AIF   (NOT (&BG53 OR &BG54)).ELS1001
         AIF   (NOT ('&CL0' EQ '')).ELS1002
&CL0     SETC  '@@'
         MNOTE 'MISSING OPERAND : @@ IS USED'
.ELS1002 ANOP
         AIF   (NOT ('&LABEL' NE '')).ELS1003
&LABEL   DS    0H
.ELS1003 ANOP
         $$PUS W,W,N,&CL0
@W&AG53  DS    0H
.ELS1001 ANOP
         MEND
         MACRO
&LABEL   $WHEN &CC
         GBLA  &AG50
         GBLB  &BG54
         GBLC  &CG50,&CG53,&CG56
         LCLA  &AL0
         LCLC  &CL0
&CL0     SETC  '&CC'
&AL0     SETA  &AG50
         $$OUV S,,O,U,V,@WHEN,(Y,G,R)
         AIF   (NOT (&BG54)).ELS1000
         AIF   (NOT ('&CL0' EQ '')).ELS1001
&CL0     SETC  '@@'
         MNOTE 'MISSING OPERAND : @@ IS USED'
.ELS1001 ANOP
         AIF   (NOT ('&LABEL' NE '')).ELS1002
&LABEL   DS    0H
.ELS1002 ANOP
&CG50    SETC  '&CG50'(1,&AG50-1).'H'.'&CG56'
&AG50    SETA  &AL0
&CG53    SETC  '@'.'&CL0'
.ELS1000 ANOP
         MEND
         MACRO
&LABEL   $THRU &BEG,&END,&STP
         GBLA  &AG55
         GBLB  &BG53,&BG54
         GBLC  &CG55
         LCLA  &AL1,&AL2,&AL3,&AL4,&AL5
         LCLC  &B,&E,&S,&TE,&TS,&CL0,&CL1,&CL2
&CL0     SETC  '&BEG'
&CL1     SETC  '&END'
&CL2     SETC  '&STP'
         AIF   (NOT (NOT &BG53)).ELS1000
         $$OUV ,,O,U,V,@THRU,(@,T,E,D,R,G,Y,A,X,Z,B)
.ELS1000 ANOP
         AIF   (NOT (&BG53 OR &BG54)).ELS1001
         AIF   (NOT ('&LABEL' NE '')).ELS1002
&LABEL   DS    0H
.ELS1002 ANOP
         $$PUS J,J,N
&AL1     SETA  K'&CL0-2
&AL2     SETA  K'&CL1
&AL3     SETA  K'&CL2
         AIF   (NOT (&AL1 EQ 0)).ELS1003
&CL0     SETC  '(@)'
&AL1     SETA  1
         MNOTE 'WRONG OR MISSING FIRST OPERAND : (@) IS USED'
.ELS1003 ANOP
         AIF   (NOT (&AL2 EQ 0)).ELS1004
&CL1     SETC  '@'
&AL2     SETA  1
         MNOTE 'WRONG OR MISSING SECOND OPERAND : @ IS USED'
.ELS1004 ANOP
&CL0     SETC  '&CL0'.'@@@@@@'
&B       SETC  'R'.'&AL1'.'&CL0'(2,8)
&CL1     SETC  '&CL1'.'@@@@@@@'
&AL4     SETA  1
&TE      SETC  'H'
         AIF   (NOT ('&CL1'(1,1) EQ '(' AND '&CL1'(&AL2,1) EQ ')')).ELS*
               1005
&AL2     SETA  &AL2-2
&AL4     SETA  2
&TE      SETC  'R'
.ELS1005 ANOP
&E       SETC  '&TE'.'&AL2'.'&CL1'(&AL4,8)
&CL2     SETC  '&CL2'.'@@@@@@@'
&AL5     SETA  1
&TS      SETC  'D'
         AIF   (NOT (&AL3 GT 0)).ELS1006
&TS      SETC  'H'
         AIF   (NOT ('&CL2'(1,1) EQ '(' AND '&CL2'(&AL3,1) EQ ')')).ELS*
               1007
&AL3     SETA  &AL3-2
&AL5     SETA  2
&TS      SETC  'R'
.ELS1007 ANOP
.ELS1006 ANOP
&S       SETC  '&TS'.'&AL3'.'&CL2'(&AL5,8)
&AG55    SETA  &AG55+30
&CG55    SETC  '&CG55'.'&B'.'&E'.'&S'
.ELS1001 ANOP
         MEND
         MACRO
         $TOR  &CC
         $$OAT &CC,@,@,V,T,@TOR
         MEND
         MACRO
         $THEN
         $$INT I,T,F,@THEN
         MEND
         MACRO
         $OR   &CC
         $$OAT &CC,V,U,O,T,@OR
         MEND
         MACRO
&LABEL   $OFREST
         GBLA  &AG50,&AG52,&AG54
         GBLB  &BG53,&BG54
         GBLC  &CG50,&CG52,&CG54
         LCLC  &L,&L2
         AIF   (NOT (NOT &BG53)).ELS1000
         $$SYN ,@OFREST,(X)
.ELS1000 ANOP
         AIF   (NOT (&BG53 OR &BG54)).ELS1001
&CG50    SETC  '&CG50'(1,&AG50-1).'Z'
&L       SETC  '&CG52'(&AG52-3,4)
&L2      SETC  '&CG54'(&AG54-3,4)
         B     @CE&L
@C&L2    DS    0H
         AIF   (NOT ('&LABEL' NE '')).ELS1002
&LABEL   DS    0H
.ELS1002 ANOP
.ELS1001 ANOP
         MEND
         MACRO
&LABEL   $OF
         GBLA  &AG50,&AG52,&AG53,&AG54
         GBLB  &BG53,&BG54
         GBLC  &CG50,&CG52,&CG54
         LCLA  &AL0,&AL1
         LCLC  &E,&N,&V,&L,&L2,&LN,&S
         AIF   (NOT (NOT &BG53)).ELS1000
         $$SYN ,@OF,(X,F,K,L)
.ELS1000 ANOP
         AIF   (NOT (&BG53 OR &BG54)).ELS1001
&S       SETC  '&CG50'(&AG50,1)
         AIF   ('&S'             NE 'X' AND '&S'             NE 'F').O1*
               00210
&L       SETC  '&CG52'(&AG52-3,4)
&L2      SETC  '&CG54'(&AG54-3,4)
&AL0     SETA  N'&SYSLIST
         AIF   (NOT ('&CG50'(&AG50,1) NE 'F')).ELS1003
         B     @CE&L
@C&L2    DS    0H
.ELS1003 ANOP
         AIF   (NOT ('&LABEL' NE '')).ELS1004
&LABEL   DS    0H
.ELS1004 ANOP
&AG53    SETA  &AG53+1
&LN      SETC  '&AG53'
&CG50    SETC  '&CG50'(1,&AG50-1).'X'
&CG54    SETC  '&CG54'(1,&AG54-4).'&LN'
         AIF   (NOT (&AL0 GT 0)).ELS1005
&E       SETC  '&CG54'(&AG54-15,16)
&V       SETC  '&E'(1,3)               GET CNTRF TYP
&N       SETC  '&E'(4,1)               GET CNTRF LENGTH
&AL1     SETA  &N
&N       SETC  '&E'(5,&AL1)            GET CNTRF NAME
         AIF   (NOT ('&V' EQ 'C  ')).ELS1006
         &V    &N,&SYSLIST(1)
         AGO   .END1006
.ELS1006 ANOP
         &V    &SYSLIST(1),&N
.END1006 ANOP
&AL1     SETA  2
.THR1007 AIF   (&AL1 GT &AL0).RHT1007
         BE    @O&L2
         AIF   (NOT ('&V' EQ 'C  ')).ELS1008
         &V    &N,&SYSLIST(&AL1)
         AGO   .END1008
.ELS1008 ANOP
         &V    &SYSLIST(&AL1),&N
.END1008 ANOP
&AL1     SETA  &AL1+1
         AGO   .THR1007
.RHT1007 ANOP
         BNE   @C&LN
         AIF   (NOT (&AL0 GT 1)).ELS1009
@O&L2    DS    0H
.ELS1009 ANOP
         AGO   .END1005
.ELS1005 ANOP
         MNOTE 'ERROR : NO OPERANDS DEFINED : NO COMPARISON IS         *
               GENERATED : @OFREST-FUNCTION RESULTS'
.END1005 ANOP
         AGO   .ECA1002
.O100210 AIF   ('&S'             NE 'K' AND '&S'             NE 'L').O1*
               00211
&CG50    SETC  '&CG50'(1,&AG50-1).'L'