LISTICF  TITLE 'VERSION 1.1 ==> LISTCAT(SHORT) FOR ICF CATALOG'
*$
*$.      +1
*$       AENDERUNGSSTAND
*$
*$       ERSTELLUNGSDATUM:   20.02.83       VERSION 1.0
*$       GEAENDERT:          18.11.83       VERSION 1.1
*$
*$       VERANTWORTLICH:     R. MEYER / SYSTEMPROGRAMMIERUNG
*$
*$
*$.      +1
*$       AUFGABE DES PROGRAMMS
*$
*$       DIESES PROGRAMM LISTET DIE WICHTIGSTEN INFORMATIONEN
*$       AUS DEN EINTRAEGEN IN EINEM ICF-KATALOG IN KOMPRI-
*$       MIERTER FORM AN; D.H. PRO DATEI WIRD EINE ZEILE GEDRUCKT.
*$       ES KOENNEN IN EINEM LAUF MEHRERE KATALOGE ANGELISTET
*$       WERDEN. FUER JEDEN KATALOG IST EIN DD-STATEMENT UND EINE
*$       EINE EINGABEKARTE ERFORDERLICH.
*$
*$
*$.      +1
*$       EIN-/AUSGABE
*$
*$       SYSPRINT ==> LISTE
*$       SYSIN    ==> ANGABE DER DDNAMEN DER KATALOGE
*$                    SPALTE  1 - 8    DDNAME
*$                    SPALTE  9 - 16   PASSWORD (SOWEIT ERFORDERLICH)
*$                                     (DEFAULT => 'ICFCAT         ')
*$                    SPALTE 17 - 22   ENTRY - AUSWAHL
*$                                     17 = 1  ==> ALIAS
*$                                     18 = 1  ==> CLUSTER
*$                                     19 = 1  ==> GDG
*$                                     20 = 1  ==> NONVSAM
*$                                     21 = 1  ==> PATH
*$                                     22 = 1  ==> USERCAT
*$                                     (DEFAULT => '111111')
*$
*$       ICFCAT   ==> ZU LISTENDER KATALOG
*$
*$
*$.      +1
*$       AUFGERUFENE UNTERROUTINEN
*$
*$       DATECHNG ==> DATUMS-UMRECHNUNG
*$       VSMERROR ==> VSAM-FEHLER AUFBEREITUNG
         EJECT
***********************************************************************
*                                                                     *
*   ANFANG    EROEFFNUNG VON ASSEMBLER-PROGRAMMEN                     *
*             LETZTE AENDERUNG :  12.03.80                            *
*                                                                     *
***********************************************************************
         MACRO
&NAME    ANFANG &V,&CD=C,&LC=0,&BR=1,&EP=,&L=0
         MNOTE  *,'        ***   VERSION VOM 12.03.80   ***'
.*
.* V   WIRD *V* ANGEGEBEN UND IST *BR>=1*, ERFOLGT DIE ADRESSIERUNG DER
.*     ERSTEN INSTRUKTION SCHON UEBER DAS BASISREG. 3, SONST UEBER R15.
.*     WIRD *R* ANGEGEBEN, WERDEN BIS ZUR DEFINITION DER SAVEAREA R15,
.*     VON DORT AB R13 UND NACH DESSEN ERSCHOEPFUNG MIT DEM PARAMETER
.*     *BR= * EVTL. AUSSERDEM VERLANGTE REGISTER ALS BASISREGISTER
.*     VERWENDET.
.*     WIRD *O* ANGEGEBEN ODER WIRD DER PARAMETER AUSGELASSEN UND IST
.*     *BR>=1*, WERDEN BIS ZUR BEENDIGUNG DES SAVEAREA HANDLINGS R15,
.*     VON DORT AB R3 UND SPAETER MIT DEM PARAMETER *BR= * EVENTUELL
.*     AUSSERDEM VERLANGTE REGISTER ALS BASISREGISTER VERWENDET. IST
.*     *BR=0*, WIRD DURCHGEHEND R15 ALS BASISREGISTER VERWENDET.
.*     DER PARAMETER *O* BEWIRKT AUSSERDEM, DASS FEHLER IN EINER ASS.-
.*     UNTERROUTINE EINES PL/I-OPT. HAUPTPROGRAMMS VOM PL/I-ERRORHAND-
.*     LER BEHANDELT UND FEHLERMELDUNGEN, DIE DIE FEHLERQUELLE IDENTI-
.*     FIZIEREN, AUSGEGEBEN WERDEN.
.* CD= STANDARDWERT IST *C* WIE *CSECT*
.*     ZULAESSIG IST AUCH *S* WIE *START*
.* LC= STANDARDWERT IST *0*, SETZT DEN ZUORDNUNGZAEHLER (AUF 0).
.*     SOWIE *NO*, WENN WEDER CSECT NOCH START ERSCHEINEN SOLL
.*     NUR ZULAESSIG IN VERBINDUNG MIT *START*, SIEHE CD=
.* BR= STANDARDWERT IST *1*, GIBT DIE ANZAHL DER BASISREGISTER AN.
.*     ZULAESSIG SIND *0*,*1*,*2* ODER *3*. ES WERDEN DANN ENTWEDER
.*     KEINE ODER IN DER REIHENFOLGE R3,R4,R5 DIE ANGEGEBENE ANZAHL AN
.*     BASISREGISTERN GENERIERT.ZULAESSIG SIND AUCH DIE FORMEN
.*     BR=(X)  BR=(X,Y)  BR=(X,Y,Z)
.*     WOBEI X,Y,Z JEWEILS FUER DIE REGISTER STEHEN, DIE ALS BASIS-
.*     REGISTER DIENEN SOLLEN, Z.B.  BR=(R5,R6)
.* EP= NAME DES EINGANGSPUNKTES. ANGABE EMPFEHLENSWERT, WENN OBERPRO-
.*     GRAMM IN PL/1 GESCHRIEBEN
.* L=  LETZTES ZEICHEN DES LABELS, DER DEN BEGINN DER BASISREGISTER-
.*     ZUORDNUNG KENNZEICHNET (=BASIS&L, WENN &L ^= 0).
.*
.* GLOBALE VARIABLE ZUM TEST GEGEN DOPPELDEFINITIONEN DER REGISTER
         GBLB  &GLBIT  BETROFFEN SIND DIE EQU'S
         GBLA  &GLBR
         LCLA  &SETBR  ZUM TESTEN FUER BR=
         LCLA  &SL,&OFS
         LCLC  &MM,&NN,&BR1,&BR2,&BR3
.*
         AIF   (T'&NAME NE 'O').M005
         MNOTE 12,'UNBENANNTE CONTROL-SECTION'
         AGO   .M130
.M005    ANOP
&NN      SETC  '&NAME'
         AIF   ('&EP' NE '&NAME').M010
         AIF   ('&V' NE 'O').M010
         AIF   (K'&NAME EQ 8).M007
&MM      SETC  '1'
         AGO   .M010
.M007    ANOP
&NN      SETC  '&NAME'(1,7)
&MM      SETC  '$'
.M010    ANOP
         AIF   ('&CD' EQ 'C').M020
         AIF   ('&CD' EQ 'S').M030
         AIF   ('&CD' EQ 'NO').M040
         MNOTE 4,'CD= IST UNGUELTIG'
.M020    ANOP
&NN&MM   CSECT
         AGO   .M042
.M030    ANOP
&NN&MM   START &LC
         AGO   .M042
.M040    ANOP
&NN&MM   DS    0F
.M042    ANOP
         AIF   ('&BR'(1,1) EQ '(').M043
&SETBR   SETA  &BR
&BR1     SETC  'R3'
&BR2     SETC  'R4'
&BR3     SETC  'R5'
         AGO   .M044
.M043    ANOP
&SETBR   SETA N'&BR
&BR1     SETC  '&BR(1)'
         AIF   (&SETBR LT 2).M044
&BR2     SETC  '&BR(2)'
         AIF   (&SETBR LT 3).M044
&BR3     SETC  '&BR(3)'
.M044    ANOP
         AIF   (&GLBIT).M045
*
*
R0       EQU   0 PARAMETER-REGISTER
R1       EQU   1 PARAMETER-REGISTER
R2       EQU   2 ARBEITSREGISTER
R3       EQU   3 ARBEITSREGISTER
R4       EQU   4 ARBEITSREGISTER
R5       EQU   5 ARBEITSREGISTER
R6       EQU   6 ARBEITSREGISTER
R7       EQU   7 ARBEITSREGISTER
R8       EQU   8 ARBEITSREGISTER
R9       EQU   9 ARBEITSREGISTER
R10      EQU   10 LINK-REGISTER
R11      EQU   11 3. BASISREGISTER
R12      EQU   12 2. BASISREGISTER
R13      EQU   13 1. BASISREGISTER
R14      EQU   14 RUECKKEHR-REGISTER
R15      EQU   15 VERZWEIG-REGISTER
*
*
         MNOTE *,'SYMBOLISCHE REGISTER GENERIERT'
*
*
.M045    AIF   ('&V' EQ 'V').M200
         AIF   ('&V' EQ 'R').M050
         AIF   ('&V' EQ 'O').M055
         AIF   (T'&V EQ 'O').M050
         MNOTE 4,'UNGUELTIGER POSITIONSPARAMETER'
.M050    ANOP
         USING *,R15
.M055    ANOP
&SL      SETA  K'&EP
         AIF   (T'&EP EQ 'O').M100
         AIF   ('&V' NE 'O').M080
         ENTRY &EP
         AIF   (&SL/2 NE (&SL+1)/2).M077
         DC    C' &EP'
         AGO   .M078
.M075    ANOP
         B     *+7+8+5+2*((&SL-1)/2)
         DC    AL1(&SL)
.M077    ANOP
         DC    C'&EP'
.M078    ANOP
         AIF   ('&V' NE 'O').M090
         DC    AL1(&SL)
         CNOP  0,4
         USING *,R15
&EP      EQU   *
         AGO   .M095
.M080    ANOP
         AIF   ('&EP' EQ '&NAME').M075
         ENTRY &EP
&EP      DS    0H
         AGO   .M075
.M090    ANOP
         DC    C'&SYSDATE'
         DC    C'&SYSTIME'
.M095    ANOP
*
*
         MNOTE *,'ENTRY - EINGANGSPUNKT GENERIERT'
*
*
.M100    ANOP
         AIF   ('&V' NE 'O').M104
         STM   R14,R12,12(R13) .  SAVE REGISTERS
         B     *+12               BRANCH AROUND CONSTANT
         DC    A(88)              LENGTH OF DSA
         DC    A(0)
         L     R0,*-8
         LR    R4,R1 .            SAVE ANY PARAMETERLIST-ADDR.
         L     R1,76(0,R13) .     ADDR. OF NEXT AVAILABLE BYTE IN STOR.
         ALR   R0,R1
         CL    R0,12(0,R12) .     COMP. WITH LAST AVAIL. BYTE IN STOR.
         BNH   *+10
         L     R15,116(0,R12) .   PL/I STORAGE OVERFLOW ROUTINE
         BALR  R14,R15 .          ATTEMPT TO OBTAIN MORE STORAGE
         ST    R0,76(0,R1) .      ADDR. OF NEXT AVAIL. BYTE IN STOR.
         ST    R13,4(0,R1)
         ST    R1,8(0,R13)
         MVC   72(4,R1),72(R13) . COPY ADDR. OF LIBRARY WORKSPACE
         LR    R13,R1
         MVI   0(R13),X'80'
         MVI   86(R13),X'91'
         MVI   87(R13),X'C0'
         LR    R1,R4
*
*
*        ENDE DES SAVEAREA-HANDLINGS
*
*
         AGO   .M200
.M104    ANOP
         CNOP  2,4
         STM   R14,R12,12(R13) .  SAVE REGISTERS
         ST    R13,*+14
         LR    R11,R13
         BAL   R13,*+19*4
         AIF   ('&V' NE 'R').M105
         USING *,R13
.M105    ANOP
ANFA&SYSNDX DS 0F   WORT 0 NUR VON PL1 VERWENDET
         DC    X'0080'
         DC    AL2(72)
         DC    F'0' WORT 1 A(SAVEAREA IM RUFENDEN PROGRAMM)
         DC    F'0' WORT 2 A(SAVEAREA IM GERUFENEN PROGRAMM)
         DC    F'0' WORT 3 R14
         DC    F'0' WORT 4 R15
         DC    F'0' WORT 5 R0        ** BEI         R14
         DC    F'0' WORT 6 R1        ** ZUGRIFFS-   R15
         DC    F'0' WORT 7 R2        ** ROUTINEN    R0
         DC    F'0' WORT 8 R3 BASIS1 ** WERDEN      R1
         DC    F'0' WORT 9 R4 BASIS2 ** HIER        R2
         DC    F'0' WORT10 R5 BASIS3 ** FOLGENDE    R3
         DC    F'0' WORT11 R6        ** REGISTER    R4
         DC    F'0' WORT12 R7        ** VON DER     R5
         DC    F'0' WORT13 R8        ** ZUGRIFFS-   R6
         DC    F'0' WORT14 R9        ** ROUTINE     R7
         DC    F'0' WORT15 R10       ** GESPEICHERT R8
         DC    F'0' WORT16 R11
         DC    F'0' WORT17 R12
*
         ST    R13,8(0,R11)
*
*
*        ENDE DES SAVEAREA-HANDLINGS
*
*
         AIF   ('&V' NE 'V').M200
         AGO   .M120
.M110    ANOP
.M120    AIF   (&GLBR GT &SETBR).M130
&GLBR    SETA  &SETBR
         AIF   ('&V' EQ 'V').M130
         DROP  R15
.M130    ANOP
&GLBIT   SETB  1
*
*
*        ENDE DES VORSPANNS
*
*
         MEXIT
.M200    AIF   (&SETBR NE 0).M220
         MNOTE *,'KEINE BASISREGISTER GENERIERT'
         AIF   ('&V' EQ 'V').M050
         AGO   .M110
.M220    AIF   ('&V' EQ 'R').M250
         BALR  &BR1,0
         AIF   ('&L' EQ '0').M222
BASIS&L  EQU   *
.M222    USING *+&OFS,&BR1
         AIF   (&GLBR GT 0).M225
.M225    AIF   (&SETBR GE 2).M240
.M230    AIF   ('&V' EQ 'V').M055
         AGO   .M110
.M240    LA    &BR2,4095(,&BR1)
         USING *+&OFS+4091,&BR2
         AIF   (&GLBR GT 1).M245
.M245    AIF   (&SETBR EQ 2).M230
         LA    &BR3,4095(,&BR2)
         USING *+&OFS+2*4091,&BR3
         AIF   (&GLBR GT 2).M230
         AGO   .M230
.M250    LA    &BR1,4095(,R13)
&OFS     SETA  4095-80
         AGO   .M222
         MEND
         EJECT
***********************************************************************
*                                                                     *
*   ENDE      ABSCHLUSS VON ASSEMBLER-PROGRAMMEN                      *
*             LETZTE AENDERUNG :  12.03.80                            *
*                                                                     *
***********************************************************************
         MACRO
&NAME    ENDE &L,&R1,&RC=
         MNOTE  *,'      ***   VERSION VOM 12.03.80   *** '
*
         LCLC  &ENDEC1,&ENDEC2
         AIF   (T'&RC EQ 'O').S040
         AIF   ('&RC'(1,1) EQ '(').S010 REG.NOTATION
         AIF   ('&RC'(1,1) LT '0').S020
&NAME    LA    R15,&RC            RETURNCODE LADEN
         AGO   .S030
.S010    ANOP
&NAME    LA    R15,0(,&RC(1))     RETURNCODE LADEN
         AGO   .S030
.S020    ANOP
&NAME    L     R15,&RC            RETURNCODE LADEN
.S030    L     R13,4(,R13)        A(SAVEAREA IM RUFENDEN PROGRAMM)
&ENDEC1  SETC  'R0'
&ENDEC2  SETC  '20'
         AGO   .S050
.S040    ANOP
&NAME    L     R13,4(,R13)        A(SAVEAREA IM RUFENDEN PROGRAMM)
.S050    AIF   (T'&R1 EQ 'O').S060
         AIF   ('&R1' NE 'R1').S900
&ENDEC1  SETC  'R2'
&ENDEC2  SETC  '28'
.S060    AIF   (T'&R1 EQ 'O' AND T'&RC EQ 'O').S070
         L     R14,12(,R13)       ALTE REG.STAENDE WIEDERHERSTELLEN
         LM    &ENDEC1,R12,&ENDEC2.(R13)
         AGO   .S080
.S070    LM    R14,R12,12(R13)    ALTE REG.STAENDE WIEDERHERSTELLEN
.S080    BR    R14                RETURN
         AIF   (T'&L EQ 'O').S090
         AIF   ('&L' NE 'L').S910
         AGO   .S920
.S090    MEXIT
.S900    IHBERMAC 37,,&R1         INVALID OPERAND
         MEXIT
.S910    AIF   (K'&L GT 1).S090
         IHBERMAC 183,&L,L
.S920    LTORG
         MEND
         EJECT
LISTICF  ANFANG R,BR=(R12)
         SPACE 5
RC       EQU   R15
RL       EQU   R11
         EJECT
*        *********************************
*        *     GET INPUT CARDS           *
*        *********************************
         SPACE
         OPEN  KARTE
READC    DS    0H
         GET   KARTE,CARDAREA
         AP    CRDCOUNT,=P'1'          INCREASE COUNTER
         SPACE
         CLC   CARDDDN,=CL8' '         DDNAME PRESENT ?
         BE    INPUTERR                NO ==> RC = 8
         MVC   ICFCAT+40(8),CARDDDN    MOVE DDNAME INTO ACB
         MVC   PASSWORD,CARDPSWD       MOVE PASSWORD TO FIELD
         CLC   CARDAUSW,BLANKS         AUSWAHL OPTIONS ?
         BNE   DSNOPEN                 YES ==> USE THIS
         MVC   CARDAUSW,=CL6'111111'   MOVE DEFAULT VALUE
         B     DSNOPEN                 GO ON
         SPACE 2
CARDEOF  DS    0H
         OI    SWITCH,CARDENDE         SET SWITCH
         CP    CRDCOUNT,=P'0'          ANY CARD READ ?
         BNE   NEXTCARD                YES ==> GO ON
         MVC   CARDAUSW,=CL6'111111'   NO ==> MOVE DEFAULT VALUE
         B     DSNOPEN                        AND USE IT
         SPACE
NEXTCARD DS    0H
         TM    SWITCH,CARDENDE         EOF SWITCH SET ?
         BNO   READC                   NO ==> GET THE NEXT
         SPACE
NOMOREWK DS    0H
         XR    RC,RC                   SET RETURN CODE TO ZERO
         B     ENDE01                  GO TO PRM-ENDE
         EJECT
*        *********************************
*        *     PREPARE HEADER LINES      *
*        *********************************
         SPACE
DSNOPEN  EQU   *
         OPEN  (PROT,OUTPUT)
         SPACE
PREPHEAD EQU   *
         LA    R0,16                   LOAD FUNCTION CODE
         LINK  EP=DATECHNG
         SPACE
         LTR   RC,RC                   DATECHNG OK ?
         BNZ   DATERROR                NO ===> MESSAGE
         ST    R1,DATE                 YES ==> SAVE RESULT
         SPACE
         TIME
         SRL   R0,4                    ADJUST TO SECONDS
         ST    R0,TIME                 SAVE RESULT
         OI    TIME+3,X'0C'            CONVERT TO PACKED FORMAT
         SPACE 3
         MVC   HDATUM,MASK2            FILL MASK IN HEADER
         MVC   HZEIT,MASK2             FILL MASK IN HEADER
         ED    HDATUM,DATE             EDIT DATE
         ED    HZEIT,TIME              EDIT TIME
         SPACE 3
         MVC   JFCBDCB+40(8),ICFCAT+40   GET DDNAME OF CATALOG
         RDJFCB (JFCBDCB)
         MVC   TITCATN,JFCBAREA
         MVC   TITVOLS,JFCBAREA+118
         SPACE 3
         MVC   PROTREC,BLANKS          CLEAR PROT RECORD
         SPACE
         OPEN  ICFCAT
         EJECT
*        *********************************
*        *     READ CATALOG RECORDS      *
*        *********************************
         SPACE
READCAT  DS    0H
         GET   RPL=VSAMSEQ
         LTR   RC,RC                   GET OK ?
         BNZ   GETERROR                NO ==> ABEND
         SPACE
         L     R3,VSAMAREA             LOAD RECORD POINTER
         SPACE
**************************************************************
*        CODING TO SNAP THE VSAM RECORDS                     *
*                                                            *
SNAPNOP1 NOP   GETSNAP1
         OPEN  (SNAP,OUTPUT)
         OI    SNAPNOP1+1,X'F0'         SET BRANCH
GETSNAP1 DS    0H
         LR    R4,R3                   COPY RECORD POINTER
         MVC   HW,0(R4)                MOVE RECORD LENGTH
         AH    R4,HW                   AND ADD IT TO RECORD POINTER
         A     R4,=F'1'
         SNAP  DCB=SNAP,PDATA=(REGS),STORAGE=((3),(4)),ID=01
*                                                            *
*                                                            *
**************************************************************
         SPACE
         MVI   CATRASA,C'0'            SPACE LINE FOR NEW COMPONENT
         SPACE
         XR    R8,R8                   CLEAR WORK REGISTER
         MVC   HW,0(R3)                SAVE RECORD LENGTH
         LH    R8,HW                       INTO R8
         SH    R8,=H'2'                    AND SUBTRACT OWN LENGTH FLD
         SPACE
         CLI   4(R3),C'A'              RECORD TYPE = A ?
         BNE   *+16                    NO ==> TRY NEXT
         CLI   CARDNVSA,C'1'           NONVSAM FLAG PRESENT ?
         BNE   READCAT                 NO ==> READ NEXT RECORD
         B     NVSAM                   YES ==> PROCESS NONVSAM RECORD
         CLI   4(R3),C'C'              RECORD TYPE = C ?
         BNE   *+16                    NO ==> TRY NEXT
         CLI   CARDCLUS,C'1'           CLUSTER FLAG PRESENT ?
         BNE   READCAT                 NO ==> READ NEXT RECORD
         B     CLUSTER                 YES ==> PROCESS CLUSTER RECORD
         CLI   4(R3),C'X'              RECORD TYPE = X ?
         BNE   *+16                    NO ==> TRY NEXT
         CLI   CARDALIA,C'1'           ALIAS FLAG PRESENT ?
         BNE   READCAT                 NO ==> READ NEXT RECORD
         B     ALIAS                   YES ==> PROCESS ALIAS RECORD
         CLI   4(R3),C'U'              RECORD TYPE = U ?
         BNE   *+16                    NO ==> TRY NEXT
         CLI   CARDUCAT,C'1'           UCAT FLAG PRESENT ?
         BNE   READCAT                 NO ==> READ NEXT RECORD
         B     UCAT                    YES ==> PROCESS USERCAT RECORD
         CLI   4(R3),C'B'              RECORD TYPE = B ?
         BNE   *+16                    NO ==> TRY NEXT
         CLI   CARDGDG,C'1'            GDG FLAG PRESENT ?
         BNE   READCAT                 NO ==> READ NEXT RECORD
         B     GDGBASE                 YES ==> PROCESS GDGBASE RECORD
         CLI   4(R3),C'R'              RECORD TYPE = R ?
         BNE   *+16                    NO ==> TRY NEXT
         B     PATH                    YES ==> PROCESS PATH RECORD
         CLI   CARDPATH,C'1'           PATH FLAG PRESENT ?
         BNE   READCAT                 NO ==> READ NEXT RECORD
         B     READCAT                 READ NEXT VSAM RECORD
         EJECT
*        *********************************
*        *     END OF FILE ICFCAT        *
*        *********************************
         SPACE
VSMEODAD DS    0H
         CLOSE (PROT,,ICFCAT)
         ZAP   PGECOUNT,=P'0'          RESET PAGE COUNTER
         ZAP   LNECOUNT,=P'99'         RESET LINE COUNTER
         B     NEXTCARD                PROCESS NEXT INPUT CARD
         EJECT
*        *********************************
*        *     LOGICAL ERROR ROUTINE     *
*        *********************************
         SPACE
VSMLERAD DS    0H
         L     R0,12(R7)               LOAD RPL ADDRESS
         LA    R1,VSAMMESS
         LINK  EP=VSMERROR
         SPACE
         ST    R1,FW                   SAVE FDBK CODE
         SPACE
         BAL   R1,VSAMWTO
         DC    AL2(121)
         DC    XL2'0000'
VSAMMESS DS    CL121
VSAMWTO  DS    0H
         SVC   35
         SPACE
         B     UABEND
         EJECT
*        *********************************
*        *     PROGRAMM EXITS/ABENDS     *
*        *********************************
         SPACE
ENDE01   DS    0H
         ENDE  RC=(R15)
         EJECT
DATERROR DS    0H
         WTO   'LISTICF ==> ERROR ON DATE CONVERSION - ABEND WITH DUMP'
         B     UABEND
         SPACE 2
DYNERROR DS    0H
         WTO   'LISTICF ==> ERROR ALLOCATING VVDS - ABEND WITH DUMP'
         B     UABEND
         SPACE 2
GETERROR DS    0H
         WTO   'LISTICF ==> ERROR ON VSAM GET - ABEND WITH DUMP'
         B     UABEND
         SPACE 2
GENCBERR DS    0H
         WTO   'LISTICF ==> ERROR ON VSAM GENCB - ABEND WITH DUMP'
         B     UABEND
         SPACE 2
INPUTERR DS    0H
         WTO   'LISTICF ==> INVALID INPUT CARD - RC = 8'
         LA    RC,8
         B     ENDE01
         SPACE 2
MODCBERR DS    0H
         WTO   'LISTICF ==> ERROR ON VSAM MODCB - ABEND WITH DUMP'
         B     UABEND
         SPACE 2
OPENERR  DS    0H
         WTO   'LISTICF ==> ERROR ON VSAM OPEN - ABEND WITH DUMP'
         B     UABEND
         SPACE 2
UABEND   DS    0H
         ABEND 1111,DUMP
         EJECT
*        *********************************
*        *     NONVSAM CATALOG RECORD    *
*        *********************************
         SPACE
NVSAM    DS    0H
         MVC   CATRTYPE,=CL8'NONVSAM'  RECORD TYPE
         LA    R5,2(R3)                POINT TO ALIAS CELL
         USING TYPE$A,R5               ESTABLISH ADDRESSABILITY
         SPACE
         XC    HW,HW                   CLEAR HALFWORD
         MVC   HW+1(1),NVKEYLN         GET LENGTH OF ALINAME
         LH    R6,HW                   LOAD LENGTH IN R6
         S     R6,=F'2'                CORRECT FOR MOVE
         EX    R6,MOVENVSN             MOVE ALIAS NAME
         B     *+10                    SKIP EXECUTE OPERATION
         SPACE
MOVENVSN DS    0H
         MVC   CATRDSN(0),NVNAME
         SPACE
         MVC   HW,NVCELEN              LENGTH OF COMPLETE CELL
         SPACE
         AH    R5,HW                   POINT TO ASSOCIATION CELL
         SH    R8,HW                   SUBTRACT FROM RECORD LENGTH
         DROP  R5
         USING TYPE$01,R5
         SPACE
         MVC   CATRCDTE,MASK1          INSERT MASK
         ED    CATRCDTE,OWNCREDT       UNPK CREATION DATE
         MVC   HW,0(R5)                LENGTH 0F OWNERSHIP CELL
         AH    R5,HW                   POINT TO NEXT CELL
         CLI   2(R5),X'03'             ASSOCIATION CELL ?
         BNE   NVSAM010                NO ==> GO ON
         MVC   HW,0(R5)                LOAD LENGTH
         AH    R5,HW                   POINT TO NEXT CELL
         SH    R8,HW                   SUBTRACT FROM RECORD LENGTH
NVSAM010 DS    0H
         USING TYPE$04,R5
         MVC   CATRVOL,VOLSERN         MOVE VOLSER
         SPACE
         BAL   RL,PRINT                PRINT RECORD
         SPACE
         MVC   HW,0(R5)                LOAD LENGTH
         AH    R5,HW                   POINT TO NEXT CELL
         SH    R8,HW                   SUBTRACT FROM RECORD LENGTH
         LTR   R8,R8                   END OF RECORD ?
         BZ    NVSAM099                YES ==> END
         CLI   2(R5),X'04'             VOLUME CELL ?
         BE    NVSAM010                YES ==> PROCESS IT
         SPACE
NVSAM099 DS    0H
         B     READCAT                 GET NEXT CAT RECORD
         DROP  R5
         EJECT
*        *********************************
*        *     CLUSTER CATALOG RECORD    *
*        *********************************
         SPACE
CLUSTER  DS    0H
         MVC   CATRTYPE,=CL8'CLUSTER'  RECORD TYPE
         SPACE
         LA    R5,2(R3)                POINT TO CLUSTER CELL
         USING TYPE$C,R5               ESTABLISH ADDRESSABILITY
         SPACE
         CLC   CLNAME(5),=X'0000000000'   CHECK IF CAT SELFDEF. REC
         BNE   *+14                    NO ==> GO ON
         MVC   CATRDSN,HEXZERO         MOVE ZEROS
         B     CLUS005                 SKIP THE OTHER STUFF
         SPACE
         XC    HW,HW                   CLEAR HALFWORD
         MVC   HW+1(1),CLNMLEN         GET LENGTH OF CLUSTER NAME
         LH    R6,HW                   LOAD LENGTH IN R6
         S     R6,=F'2'                CORRECT FOR MOVE
         EX    R6,MOVECLNM             MOVE ALIAS NAME
         B     *+10                    SKIP EXECUTE OPERATION
         SPACE
MOVECLNM DS    0H
         MVC   CATRDSN(0),CLNAME
         SPACE
CLUS005  DS    0H
         MVC   HW,0(R5)                GET CELL LENGTH
         AH    R5,HW                   POINT TO NEXT CELL
         SH    R8,HW                   SUBTRACT FROM RECORD LENGTH
         DROP  R5
         USING TYPE$01,R5
         SPACE
         MVC   CATRCDTE,MASK1          INSERT MASK
         ED    CATRCDTE,OWNCREDT       UNPK CREATION DATE
         MVC   HW,0(R5)                LENGTH 0F OWNERSHIP CELL
         AH    R5,HW                   POINT TO NEXT CELL
         SH    R8,HW                   SUBTRACT FROM RECORD LENGTH
         CLI   2(R5),X'02'             SECURITY CELL ?
         BNE   CLUS010                 NO ==> GO ON
         MVC   HW,0(R5)                LOAD LENGTH
         AH    R5,HW                   POINT TO NEXT CELL
         SH    R8,HW                   SUBTRACT FROM RECORD LENGTH
CLUS010  DS    0H
         CLI   2(R5),X'03'             ASSOCIATION CELL ?
         BNE   CLUS011                 NO ==> GO ON
         MVC   HW,0(R5)                LOAD LENGTH
         AH    R5,HW                   POINT TO NEXT CELL
         SH    R8,HW                   SUBTRACT FROM RECORD LENGTH
CLUS011  DS    0H
         CLI   2(R5),X'06'             RELATION CELL ?
         BNE   CLUS012                 NO ==> GO ON
         MVC   HW,0(R5)                LOAD LENGTH
         AH    R5,HW                   POINT TO NEXT CELL
         SH    R8,HW                   SUBTRACT FROM RECORD LENGTH
CLUS012  DS    0H
         DROP  R5
         SPACE
         BAL   RL,PRINT
         SPACE
         MVC   CATRTYPE,=CL8'  DATA '  RECORD TYPE
         USING TYPE$D,R5
         SPACE
         XC    HW,HW                   CLEAR HALFWORD
         MVC   HW+1(1),DIDKEYLN        GET LENGTH OF DATA NAME
         LH    R6,HW                   LOAD LENGTH IN R6
         S     R6,=F'2'                CORRECT FOR MOVE
         EX    R6,MOVEDTNM             MOVE DATA NAME
         B     *+10                    SKIP EXECUTE OPERATION
         SPACE
MOVEDTNM DS    0H
         MVC   CATRDSN(0),DIDKEY
         SPACE
         MVC   HW,0(R5)                GET CELL LENGTH
         AH    R5,HW                   POINT TO NEXT CELL
         SH    R8,HW                   SUBTRACT FROM RECORD LENGTH
         DROP  R5
         USING TYPE$01,R5
         SPACE
         MVC   CATRCDTE,MASK1          INSERT MASK
         ED    CATRCDTE,OWNCREDT       UNPK CREATION DATE
         MVC   HW,0(R5)                LENGTH 0F OWNERSHIP CELL
         AH    R5,HW                   POINT TO NEXT CELL
         SH    R8,HW                   SUBTRACT FROM RECORD LENGTH
         CLI   2(R5),X'02'             SECURITY CELL ?
         BNE   CLUS020                 NO ==> GO ON
         MVC   HW,0(R5)                LOAD LENGTH
         AH    R5,HW                   POINT TO NEXT CELL
         SH    R8,HW                   SUBTRACT FROM RECORD LENGTH
CLUS020  DS    0H
         DROP  R5
         USING TYPE$04,R5
CLUS025  DS    0H
         MVC   CATRVOL,VOLSERN         MOVE VOLSER
         SPACE
         BAL   RL,READVVDS             GET VVDS INFORMATIONS
         SPACE
         BAL   RL,PRINT                PRINT RECORD
         SPACE
         MVC   HW,0(R5)                LOAD LENGTH
         AH    R5,HW                   POINT TO NEXT CELL
         SH    R8,HW                   SUBTRACT FROM RECORD LENGTH
         C     R8,=F'0'                END OF RECORD ?
         BNH   CLUS099                 YES ==> END
         CLI   2(R5),X'04'             VOLUME CELL ?
         BNE   CLUS029                 NO ==> GO ON WITH INDEX
         TM    VOLFLAG1,VOLSSQWD       SEQ SET WITH DATA ?
         BNO   CLUS025                 NO ==> PROCESS IT
         MVC   HW,0(R5)                LOAD LENGTH
         AH    R5,HW                   POINT TO NEXT CELL
         SH    R8,HW                   SUBTRACT FROM RECORD LENGTH
         C     R8,=F'0'                END OF RECORD ?
         BNH   CLUS099                 YES ==> END
         DROP  R5
         SPACE
CLUS029  DS    0H
         MVC   CATRTYPE,=CL8'  INDEX'  RECORD TYPE
         USING TYPE$D,R5
         SPACE
         XC    HW,HW                   CLEAR HALFWORD
         MVC   HW+1(1),DIDKEYLN        GET LENGTH OF DATA NAME
         LH    R6,HW                   LOAD LENGTH IN R6
         S     R6,=F'2'                CORRECT FOR MOVE
         EX    R6,MOVEIXNM             MOVE DATA NAME
         B     *+10                    SKIP EXECUTE OPERATION
         SPACE
MOVEIXNM DS    0H
         MVC   CATRDSN(0),DIDKEY
         SPACE
         MVC   HW,0(R5)                GET CELL LENGTH
         AH    R5,HW                   POINT TO NEXT CELL
         SH    R8,HW                   SUBTRACT FROM RECORD LENGTH
         DROP  R5
         USING TYPE$01,R5
         SPACE
         MVC   CATRCDTE,MASK1          INSERT MASK
         ED    CATRCDTE,OWNCREDT       UNPK CREATION DATE
         MVC   HW,0(R5)                LENGTH 0F OWNERSHIP CELL
         AH    R5,HW                   POINT TO NEXT CELL
         SH    R8,HW                   SUBTRACT FROM RECORD LENGTH
         CLI   2(R5),X'02'             SECURITY CELL ?
         BNE   CLUS030                 NO ==> GO ON
         MVC   HW,0(R5)                LOAD LENGTH
         AH    R5,HW                   POINT TO NEXT CELL
         SH    R8,HW                   SUBTRACT FROM RECORD LENGTH
CLUS030  DS    0H
         DROP  R5
         USING TYPE$04,R5
CLUS035  DS    0H
         MVC   CATRVOL,VOLSERN         MOVE VOLSER
         SPACE
         BAL   RL,READVVDS             GET VVDS INFORMATIONS
         SPACE
         BAL   RL,PRINT                PRINT RECORD
         SPACE
         MVC   HW,0(R5)                LOAD LENGTH
         AH    R5,HW                   POINT TO NEXT CELL
         SH    R8,HW                   SUBTRACT FROM RECORD LENGTH
         C     R8,=F'0'                END OF RECORD ?
         BNH   CLUS099                 YES ==> END
         CLI   2(R5),X'04'             VOLUME CELL ?
         BNE   CLUS039                 NO ==> GO ON WITH AIX
         TM    VOLFLAG1,VOLSSQWD       SEQ SET WITH DATA ?
         BNO   CLUS035                 NO ==> PROCESS IT
         MVC   HW,0(R5)                LOAD LENGTH
         AH    R5,HW                   POINT TO NEXT CELL
         SH    R8,HW                   SUBTRACT FROM RECORD LENGTH
         C     R8,=F'0'                END OF RECORD ?
         BNH   CLUS099                 YES ==> END
         DROP  R5
         SPACE
CLUS039  DS    0H
         USING TYPE$G,R5
         MVC   CATRTYPE,=CL8' AIX   '  RECORD TYPE
         SPACE