         MACRO
&NAME    MLOAD &EP,&ADRESSE
.*       TITLE ' M L O A D    LOAD-MACRO MIT ADRESSKONSTANTE FUER LINK'
.*                                                                   *
.*                                                                   *
.*       MLOAD  LAEDT DAS IM 1. PARAMETER BEZEICHNETE PROGRAMM.      *
.*       -----  DER 2. PARAMETER BESTIMMT DEN NAMEN EINER ADRESS-    *
.*                                                        KONSTANTEN,*
.*              DIE IM MACRO  MLOAD  DEFINIERT  WIRD.                *
.*              DER LADEPUNKT DES PROGRAMMS WIRD  DORTHIN GESPEICHERT.
.*                                                                   *
.*              DAS MACRO  *MLINK *  BENUTZT DIESE ADRESSE, UM       *
.*              ZUM LADEPUNKT ZU VERZWEIGEN.                         *
.*                                                                   *
.*    * * * *                                                        *
.*    *  STANDARDANWEISUNG                                           *
.*    *                      SYMBOL   MLOAD  PROGR,ADRESSE           *
.*    *                               - -  - - - - - - - -           *
.*    *        SYMBOL = WAHLWEISE                                    *
.*    *        PROGR  = ZU LADENDES PROGRAMM                         *
.*    *        ADRESSE= NAME FUER EINE ADR-KONSTANTE                 *
.*    * * * *                                                        *
.*                                                                   *
.*                                                                   *
.*       BEISPIEL                                                    *
.*       - - - - - PROGRAMM  * UPKKPUT *  SOLL GELADEN WERDEN        *
.*                 DIE ADRESSKONSTANTE SOLL  * ADKKPUT * HEISSEN     *
.*                                                                   *
.*                                    MLOAD  UPKKPUT,ADKKPUT         *
.*                                                                   *
.*                                                                   *
.*                 DIESES PROGRAMM SOLL AKTIVIERT  WERDEN            *
.*                                                                   *
.*                           BA22     MLINK  UPKKPUT,ADKKPUT         *
.*                                                                   *
.*                                                                   *
.*  *  *  *  *  *  *  *  *  *  *  *  *  *  *  *  *  *  *  *  *  *  * *
         AIF   (N'&SYSLIST NE 2).FEHLER
&NAME    LOAD  EP=&EP    LADEN PROGRAMM
         ST    R0,&ADRESSE    LADEPUNKT IN ADR-KONST.SPEICHERN
         CNOP  0,4
         B     *+8
&ADRESSE DC    F'0'           ADRESSKONSTANTE
         SPACE 3
         MEXIT
.*
.FEHLER  MNOTE 12,'***  ZWEI PARAMETER SIND VERLANGT ***'
         SPACE 3
         MEXIT
         MEND
