         MACRO
&NAME    MBASISN &RA,&RE,&RC=,&TYPE=N
         GBLB  &MTRB000            MUPTRACE ACTIVE
         GBLB  &MTRB004(2)         MUPTRACE MBASIS
         GBLA  &MBSA001            MBASIS COUNT
         GBLA  &MBSA002            MBASIS MAXMUP
         GBLB  &MBSB001            MBASIS PRESENT
         GBLB  &MBSB002            MBASIS RC=(R15)
         GBLC  &MBSC001(30)        MBASIS &SYSECT
         GBLC  &MBSC002(30)        MBASIS &SYSNDX
         LCLA  &R1,&R2,&V,&W,&CNT,&G,&L,&M
         LCLB  &A,&E,&S,&TS,&TT,&RCR
         LCLC  &R(11),&K(11),&N,&X
&G       SETA  &MBSA001
&M       SETA  &MBSA002
&MBSC001(&G) SETC '&SYSECT'
&MBSC002(&G) SETC '&SYSNDX'
&S       SETB  (&MBSB001)
&X       SETC  '&SYSNDX'
&TT      SETB  ('&TYPE' EQ 'T')
&TS      SETB  (&TT OR '&TYPE' EQ 'S')
&MBSB002 SETB  (&MTRB004(1))
         AIF   (T'&RC EQ 'O').L02
         AIF   ('&RC' EQ '(15)' OR '&RC' EQ '(R15)').L01
         MNOTE 8,'RC= PARAMETER NOT ''(R15)''. IGNORED'
         AGO   .L02
.L01     ANOP
&MBSB002 SETB  1
.L02     ANOP
&RCR     SETB  (&MBSB002)
         AIF   ('&RA' EQ '').L4
&A       SETB  1
         AIF   ('&RA'(1,1) EQ 'R').L2
         AIF   (T'&RA NE 'N').E1
         AIF   ('&RA' LT '2' OR '&RA' GT '12').E1
&R1      SETA  &RA
         AGO   .L8
.L2      ANOP
&W       SETA  K'&RA-1
&N       SETC  '&RA'(2,&W)
         AIF   (&W GT 1).L3
         AIF   ('&N' GE '2' AND '&N' LE '9').L6
         AGO   .E1
.L3      AIF   ('&N'(1,1) NE '1').E1
         AIF   ('&N'(2,1) GE '0' AND '&N'(2,1) LE '2').L6
.E1      MNOTE 4,'FIRST OPERAND MUST BE IN RANGE OF ''R2 - R12''. R3 US*
               ED'
.L4      ANOP
&R1      SETA  3
         AGO   .L8
.L6      ANOP
&R1      SETA  &N
.L8      AIF   ('&RE' EQ '').L22
&E       SETB  1
         AIF   (&A).L9
         MNOTE *,'FIRST OPERAND MISSING. R3 USED'
.L9      ANOP
         AIF   ('&RE'(1,1) EQ 'R').L10

         AIF   (T'&RE NE 'N').E2
         AIF   ('&RE' LT '3' OR '&RE' GT '12').E2
&R2      SETA  &RE
         AGO   .L16
.L10     ANOP
&W       SETA  K'&RE-1
&N       SETC  '&RE'(2,&W)
         AIF   (&W GT 1).L11
         AIF   ('&N' GE '3' AND '&N' LE '9').L14
         AGO   .E2
.L11     AIF   ('&N'(1,1) NE '1').E2
         AIF   ('&N'(2,1) GE '0' AND '&N'(2,1) LE '2').L14
.E2      MNOTE 12,'SECOND OPERAND MUST BE IN RANGE OF ''R3 - R12''. R12*
                USED'
.L12     ANOP
&R2      SETA  12
         AGO   .L16
.L14     ANOP
&R2      SETA  &N
.L16     AIF   (&R1 NE &R2).L18
         MNOTE 0,'FIRST AND SECOND OPERAND EQUAL. SECOND IGNORED'
&E       SETB  0
         AGO   .L22
.L18     AIF   (&R1 LT &R2).L20
         MNOTE 12,'SECOND OPERAND MUST BE GREATER THAN FIRST ONE. R12 U*
               SED'
         AGO   .L12
.L20     ANOP
&CNT     SETA  &R2-&R1
.L22     AIF   (NOT (&A OR &E)).L26
&R(1)    SETC  'R&R1'
&K(1)    SETC  ',R&R1'
         AIF   (NOT &E).L26
&W       SETA  2
.L24     ANOP
&R2      SETA  &R1+&W-1
&R(&W)   SETC  'R&R2'
&K(&W)   SETC  ',R&R2'
&W       SETA  &W+1
         AIF   (&W LE (&CNT+1)).L24
.L26     USING *,R15 .            ENTRY REGISTER USED AS BASE REGISTER
&W       SETA  K'&SYSECT
         AIF   (&W GT 1).L27
&W       SETA  2
.L27     ANOP
&W       SETA  &W+10+16
&V       SETA  &W+4+1+1
&V       SETA  &V/2
&V       SETA  &V*2
&NAME    B     &V.(0,R15) .       BRANCH AROUND IDENTIFIER
         DC    AL1(&W) .          LENGTH OF IDENTIFIER
         DC    CL&W'RWG-CSECT &SYSECT  &SYSTIME &SYSDATE'
         STM   R14,R12,12(R13) .  SAVE REGS INTO CALLING PROGRAMM
         CNOP  4,8 .              ALIGN TO FULLWORD BOUNDARY
&L       SETA  4+72
         AIF   (NOT &MTRB000).SV0
&L       SETA  4+72+24
.SV0     AIF   (NOT &TS).SV1

&L       SETA  4+72+24+72+&M*4
.SV1     AIF   (NOT &TT).SV2
&L       SETA  4+72+24+72+24+&M*4
.SV2     ANOP
         BAL   R14,*+&L .         LOAD SAVEAREA-ADDR-CALLED-PGM
SAVE&X   DC    18F'0' .           AND BRANCH AROUND SAVEAREA
         AIF   (NOT &MTRB000).SV3
TRAD&X   DS    0F                  RESERVED FOR TRACE-ROUTINE
         DC    X'00'               X'FF' IF TRACE-ROUTINE PRESENT
         DC    AL3(0)              ADDRESS OF TRACE-ROUTINE
TRMC&X   DC    X'04080C1014181C20' MACRO TYPE CODES
TRSV&X   DC    3F'0'               SAVEAREA FOR TRACE-ROUTINE
         AIF   (NOT &TS).SV7
         AGO   .SV4
.SV3     AIF   (NOT &TS).SV7
TRAD&X   DC    6F'0'               RESERVED FOR TRACE-ROUTINE
.SV4     ANOP
*                                  AREAS FOR REENTRANT MODULES
         DC    18F'0'              SYSTEM SAVEAREA
         AIF   (NOT &TT).SV6
TRRE&X   DC    A(0)                ADDRESS OF TRACE-ROUTINE
         DC    X'04080C1014181C20' MACRO TYPE CODES
         AIF   (NOT &MTRB000).SV5
         DC    3F'0'               SAVEAREA FOR TRACE-ROUTINE
         AGO   .SV6
.SV5     ANOP
TRSV&X   DC    3F'0'               SAVEAREA FOR TRACE-ROUTINE
.SV6     ANOP
         DC    &M.F'0'             SAVEAREAS FOR REENTRANT MUPEIN
.SV7     ANOP
         ST    R14,8(0,R13) .     STORE ADDR INTO CALLING PGM-SAVEAREA
         ST    R13,4(0,R14) .      STORE SAVEAREA-ADDR-CALLING-PGM HERE
         LA    R13,0(0,R14) .     LOAD ACTUAL SAVEAREA-ADDR INTO REG13
*                                 AND USE REG13 AS FIRST BASE REGISTER
         AIF   (NOT (&A OR &E)).L30
         LA    R14,1 .            USE ONE AS INDEX FOR NEXT BASE REGS
         LA    &R(1),4095(R14,R13)
         AIF   (NOT &E).L30
&W       SETA  2
.L28     ANOP
&R1      SETA  &W-1
         LA    &R(&W),4095(R14,&R(&R1))
&W       SETA  &W+1
         AIF   (&W LE (&CNT+1)).L28
.L30     AIF   (&MTRB000 OR &TT).TL1
         B     USER&X              BRANCH TO USER PROGRAMM
         AGO   .TL2
.TL1     B     TRAC&X              GO LOAD TRACE-ROUTINE
.TL2     ANOP
         SPACE 2
         DROP  R15 .              RELEASE REG15 AS BASE REGISTER
*                                 AND ESTABLISH NEW BASE REGISTERS
         USING SAVE&X,R13&K(1)&K(2)&K(3)&K(4)&K(5)&K(6)&K(7)&K(8)&K(9)&*
               K(10)&K(11)
         SPACE 2
         AIF   (&S OR &MBSB002).S1
MRETURN  EQU   * .                ENTRY FOR EXIT TO CALLING PROGRAMM
         AGO   .S2
.S1      ANOP
MRET&X   EQU   * .                ENTRY FOR EXIT TO CALLING PROGRAMM
.S2      AIF   (NOT &MTRB004(1)).TR1
         STM   R14,R0,TRSV&X       SAVE USER REGISTER
         L     R15,TRAD&X          LOAD TRACE-ROUTINE ADDRESS
         ICM   R0,8,TRMC&X+4       SET MACRO TYPE
         BALR  R14,R15             BRANCH TO TRACE-ROUTINE
         AIF   (NOT &RCR).TR1
         L     R15,TRSV&X+4        RESTORE USER RETURN-CODE
.TR1     L     R13,SAVE&X+4        LOAD SAVEAREA-ADR-CALLING-PGM
         AIF   (NOT &RCR).S21
         L     R14,12(0,R13) .    LOAD RETURN-ADDRESS
*                                 RETURN-CODE WAS PRELOADED INTO REG 15
         LM    R0,R12,20(R13) .   RESTORE REGS FOR CALLING-PGM
         AGO   .S41
.S21     ANOP
         LM    R14,R12,12(R13) .  RESTORE REGS FOR CALLING-PGM
         AIF   (&S).S3
RETCODE  EQU   *+3 .              RETURN-CODE  -  MODIFIED BY 'MRETURN'
         AGO   .S4
.S3      ANOP
RTCD&X   EQU   *+3 .              RETURN-CODE  -  MODIFIED BY 'MRETURN'
.S4      LA    R15,0 .            LOAD RETURN-CODE INTO REG 15
.S41     ANOP
         MVI   12(R13),255 .      SET RETURN-INDICATOR
         BR    R14 .              RETURN TO CALLING PROGRAMM
         AIF   (&S).S5
         SPACE 2
*                                      EQUATE REGISTERS TO SYMBOLS
         SPACE
R0       EQU   0
R1       EQU   1
R2       EQU   2
R3       EQU   3
R4       EQU   4
R5       EQU   5
R6       EQU   6
R7       EQU   7
R8       EQU   8
R9       EQU   9
R10      EQU   10
R11      EQU   11
R12      EQU   12
R13      EQU   13
R14      EQU   14
R15      EQU   15
&MBSB001 SETB  1
.S5      ANOP
         AIF   (&TT).TR7
         AIF   (NOT &MTRB000).S6
.TR7     ANOP
         SPACE 2
         AIF   (NOT &MTRB004(1)).TR5
TRAC&X   NOP   TR03&X              BRANCH TO DO TRACE AFTER FIRST TIME
         AGO   .TR6
.TR5     ANOP
TRAC&X   NOP   USER&X              BRANCH TO USER-PGM AFTER FIRST TIME
.TR6     ANOP

         OI    TRAC&X+1,240        SET FIRST TIME SWITCH
         LR    R14,R13             LOAD ACTUAL SAVEAREA-ADDR
TR01&X   L     R14,4(0,R14)        LOAD LOWER SAVEAREA-ADDR
         CLC   TRAD&X,4(R14)       AND TEST IF ONE MORE IS AVAILABLE
         BZ    TR02&X              NO, SV-SAVEAREA REACHED
         CLI   72(R14),255         IS TRACE-ROUTINE PRESENT IN SYSTEM
         BNE   TR01&X              NO, GO TEST NEXT LOWER SAVEAREA
         MVC   TRAD&X,72(R14)      YES, MOVE TRACE-ROUTINE ADDRESS
         AIF   (NOT &TT).TR8
         MVC   TRRE&X,72(R14)      INTO BOTH AREAS
.TR8     ANOP
         AIF   (NOT &MTRB004(1)).TR2
         B     TR03&X              BRANCH TO DO TRACE
         AGO   .TR3
.TR2     ANOP
         B     USER&X              BRANCH TO USER PROGRAMM
.TR3     ANOP
         SPACE 1
TR02&X   STM   R15,R1,TRSV&X       SAVE USER PARAMETER REGISTER
         LOAD  EP=UPTRACE          LOAD TRACE-ROUTINE
         ST    R0,TRAD&X           SAVE ENTRY POINT
         MVI   TRAD&X,255          SET TRACE-ROUTINE INDICATOR
         AIF   (NOT &TT).TR9
         ST    R0,TRRE&X           THE SAME FOR
         MVI   TRRE&X,255          NEXT AREA ALSO
.TR9     ANOP
         LM    R15,R1,TRSV&X       RESTORE USER PARAMETER REGISTER
         AIF   (NOT &MTRB004(1)).TR4
         SPACE 1
TR03&X   STM   R14,R0,TRSV&X       SAVE USER REGISTER
         L     R15,TRAD&X          LOAD TRACE-ROUTINE ADDRESS
         LR    R0,R13              LOAD ID-REGISTER WITH SAVEAREA-ADDR
         ICM   R0,8,TRMC&X+3       SET MACRO TYPE
         BALR  R14,R15             BRANCH TO TRACE-ROUTINE
         LM    R14,R0,TRSV&X       RESTORE USER REGISTER
.TR4     ANOP
.S6      ANOP
         SPACE 2
USER&X   DC    0H'0' .            USER PROGRAMM STARTS HERE
         EJECT
         MEND
