         MACRO
&NAME    MRETURN &RT,&RC=,&RC1=,&RC2=
         GBLB  &MTRB004(2)         MUPTRACE MRETURN
         GBLA  &MBSA001            MBASIS COUNT
         GBLB  &MBSB001            MBASIS PRESENT
         GBLB  &MBSB002            MBASIS RC=(R15)
         GBLB  &MBSB003            MBASIS TYPE=R
         GBLC  &MBSC001(30)        MBASIS &SYSECT
         GBLC  &MBSC002(30)        MBASIS &SYSNDX
         LCLA  &A,&G
         LCLB  &R1,&R2,&R15
         LCLC  &T,&R,&C,&X
         AIF   (NOT &MBSB001).E7
&R15     SETB  (&MBSB002)
&X       SETC  '&SYSNDX'
&G       SETA  &MBSA001
.G1      AIF   ('&MBSC001(&G)' EQ '&SYSECT').G2
&G       SETA  &G-1
         AIF   (&G NE 0).G1
         AGO   .E7
.G2      AIF   (&R15 OR &G NE 1).G3
&R       SETC  'MRETURN'
&C       SETC  'RETCODE'
         AGO   .G4
.G3      ANOP
&T       SETC  '&MBSC002(&G)'
&R       SETC  'MRET&T'
&C       SETC  'RTCD&T'
         AIF   (&R15 AND '&RT' EQ '' AND T'&RC EQ 'O'                  *
               AND T'&RC1 EQ 'O' AND T'&RC2 EQ 'O').E8
.G4      AIF   ('&RT' EQ '' AND T'&RC EQ 'O').L0
         AIF   ('&RT' NE '' AND T'&RC NE 'O').R3
         AIF   ('&RT' EQ '').R4
.* FORMAT-15
         AIF   ('&RT' EQ 'RC').R1
         MNOTE 4,'POSITIONAL OPERAND INVALID. SET TO ''RC'''
.R1      AIF   (T'&RC1 EQ 'O' AND T'&RC2 EQ 'O').R2
         MNOTE 4,'ADDITIONAL KEYWORD PARAMETER. IGNORED'
.R2      ANOP
         AIF   (&R15).L7
&NAME    STH   R15,&C.-1               STORE RETURN-CODE INTO 'MBASIS'
         AGO   .L8
.R3      MNOTE 4,'POSITIONAL OPERAND AND RC= SPECIFIED. RC= USED'
.R4      ANOP
         AIF   (T'&RC1 EQ 'O' AND T'&RC2 EQ 'O').R41
         MNOTE 4,'ADDITIONAL KEYWORD PARAMETER. RC= USED'
.R41     ANOP
         AIF   ('&RC'(1,1) NE '(').R5
         AIF   ('&RC' EQ '(15)').R2
         AIF   ('&RC' EQ '(R15)').R2
         AIF   (&R15).R9
&NAME    STH   &RC,&C.-1           STORE RETURN-CODE INTO 'MBASIS'
         AGO   .L8
.R5      ANOP
         AIF   (T'&RC NE 'N').R7
         AIF   ('&RC' LT '0' OR '&RC' GT '4095').E9
&A       SETA  &RC
.R6      ANOP
&NAME    LA    R15,&A              LOAD RETURN-CODE
         AGO   .R8
.R7      ANOP
&NAME    L     R15,&RC             LOAD RETURN-CODE
.R8      AIF   (&R15).L8
         STH   R15,&C.-1           STORE RETURN-CODE INTO 'MBASIS'
         AGO   .L8
.R9      ANOP
&NAME    LR    R15,&RC             LOAD RETURN-CODE
.L8      AIF   (&MTRB004(1)).TR2
         B     &R                  BRANCH TO ENTRY IN 'MBASIS'
         SPACE 2
         MEXIT
.L0      AIF   (T'&RC1 EQ 'O').L1
&R1      SETB  1
.L1      AIF   (T'&RC2 EQ 'O').L2
&R2      SETB  1
.L2      AIF   (&R1 OR &R2).L3
.* FORMAT-O
.L7      AIF   (&MTRB004(1)).TR1
&NAME    B     &R                  BRANCH TO ENTRY IN 'MBASIS'
         SPACE 2
         MEXIT
.L3      AIF   (NOT (&R1 AND &R2)).L4
         MNOTE 4,'RC1 AND RC2 SPCIFIED. RC2 USED'
         AGO   .L6
.L4      AIF   (&R2).L6
.* FORMAT-1
         AIF   (T'&RC1 NE 'N').E1
         AIF   ('&RC1' LT '0' OR '&RC1' GT '255').E2
&A       SETA  &RC1
.L5      ANOP
         AIF   (&R15).R6
&NAME    MVI   &C.,&A                  MOVE RETURN-CODE INTO 'MBASIS'
         AGO   .L8
.L6      ANOP
.* FORMAT-2
         AIF   (T'&RC2 NE 'N').E4
         AIF   ('&RC2' LT '0' OR '&RC2' GT '4095').E5
&A       SETA  &RC2
         AGO   .R6
.TR1     ANOP
&NAME    BAL   R0,&R               BRANCH TO ENTRY IN 'MBASIS'
         AGO   .TR3
.TR2     ANOP
         BAL   R0,&R               BRANCH TO ENTRY IN 'MBASIS'
.TR3     ANOP
MRET&X   DC    C'&X'               IDENTIFIER
         SPACE 2
         MEXIT
.E1      MNOTE 4,'RC1 NOT NUMERIC. RC1=0 USED'
         AGO   .E3
.E2      MNOTE 4,'RC1 LESS 0 OR GREATER 255. RC1=0 USED'
.E3      ANOP
&A       SETA  0
         AGO   .L5
.E4      MNOTE 4,'RC2 NOT NUMERIC. RC2=0 USED'
         AGO   .E6
.E5      MNOTE 4,'RC2 LESS 0 OR GREATER 4095. RC2=0 USED'
.E6      ANOP
&A       SETA  0
         AGO   .R6
.E7      MNOTE 12,'''MRETURN'' USED WITHOUT PRIOR ''MBASIS'' IN THIS CS*
               ECT. MACRO IGNORED'
         MEXIT
.E8      MNOTE *,'RC NOT DEFINED. RC=0 USED'
         AGO   .E6
.E9      MNOTE 4,'RC LESS 0 OR GREATER 4095. RC=0 USED'
         AGO   .E6
         MEND
