         TITLE 'IEAVADUS -   ABEND/SNAP USER EXIT'
         LCLA  &FLAG2
&FLAG2   SETA  137           CHANGE IF NECESSARY         *** SBV
         MACRO
&NAME    ABMSG &S,&LINKREG=R14,&SVEADDR=MSGRET
         CNOP  2,4                 ALIGN
&NAME    DS    0H
         ST    &LINKREG,&SVEADDR . SAVE RETURN TO CALLER
         L     R15,PENTRY          LOAD MSG ROUTINE ADDRESS
         BALR  R14,R15             GO PRINT
         AIF   ('&S' NE 'S').MEND
         L     R15,PENTRY          LOAD MSG ROUTINE ADDRESS
         BALR  R14,R15             GO PRINT
.MEND    ANOP
         L     &LINKREG,&SVEADDR . LOAD RETURN TO CALLER
         BR    &LINKREG            RETURN TO CALLER
         MEND
         MACRO
         QINIT &ADDR=AROUND
         SPACE 2
         B     &ADDR                    BRANCH AROUND ID'S
         DC    CL8'&SYSECT'             CSECT ID
         DC    C'-'
         DC    CL8'&SYSDATE'            DATE COMPILED
         DC    C'-'
         DC    CL6'&SYSTIME'            TIME COMPILED
&ADDR    EQU   *
         SPACE 2
         MEND
         MACRO
&NAME    SYSDUMP
*        SDUMP HDR='      --> CONTROL REGION ABEND',
*              SDATA=(CSA,NUC,RGN,TRT,SQA,ALLPSA,SUMDUMP),MF=L
&NAME    SDUMP HDR='      --> CONTROL REGION ABEND',                   *
               SDATA=(CSA,NUC,RGN,TRT,SQA,ALLPSA,SUMDUMP),MF=L
         MEND
         EJECT
* * * * * * * * * * * * * * * * * * * * * * * * * * * * * * * * * * * *
*
*
*
*                           IEAVADUS
*                        --------------
*
*                         VERSION   5.1
*
*                         SEPT.14, 1982
*
*
*
*        FUNCTION -    TO FORMAT DATA MANAGEMENT CONTROL BLOCKS USING
*                      THE SNAP/ABDUMP EXIT PROVIDED BY IBM.  FOR
*                      DOCUMENTATION ON THIS INTERFACE SEE SUPERVISOR
*                      PERFORMANCE # 1 NEWSLETTER  (VS2.03.805).
*                      TNL GN28-2725 UPDATE TO GC28-0627-1  OS/VS
*                      SYSTEM PROGRAMMING LIBRARY -  JOB MANAGEMENT.
*
*
*        OPERATION -   IEAVADUS OPERATES IN AN ESTAE ENVIRONMENT TO
*                      TRAP OUT ERRORS IN FORMATTING CONTROL BLOCKS.
*
*
*                      ABEND CODE CHECKING IS DONE, AND FOR THE CODES
*                      IN THE TABLE, THE CORE PRINT FOLLOWING THE
*                      FORMATTED CONTROL BLOCKS IS SUPPRESSED.
*                      TO BYPASS SUPPRESSION OF THE DUMP FOR A
*                      PARTICULAR STEP, A SPECIAL DD CARD CAN BE ADDED.
*                      THE DD CARD HAS THE FOLLOWING FORMAT -
*
*                            //SBVABEND DD SYSOUT=A             *** SBV
*
*
*
*                      THE FORMAT OF THE OUTPUT OF THIS ROUTINE IS
*                      BEST DOCUMENTED BY TAKING SAMPLE DUMPS AND
*                      SEEING WHAT YOU GET.   GOOD LUCK.
*
*        COMMENTS  -   IF YOU HAVE ANY PROBLEMS WITH VABDUMP PLEASE
*                      CONTACT ARNOLD CASINGHINO AT THE BELOW
*                      ADDRESS. IF YOU HAVE ANY COMMENTS OR SUGGESTIONS
*                      ON HOW TO IMPROVE THE CODE OR ADDITIONAL
*                      ENHANCEMENTS YOU WOULD LIKE TO SEE PLEASE
*                      FORWARD TO THE BELOW ADDRESS
*                      IF YOU MAKE ANY MODIFICATIONS TO THE CODE
*                      WE WOULD VERY MUCH APPREICATE A COPY OF SAME
*
*                      ARNOLD CASINGHINO
*                      CONNECTICUT BANK & TRUST COMPANY
*                      TECHNICAL SUPPORT SECTION
*                      99 FOUNDERS PLAZA
*                      EAST HARTFORD,
*                      CONNECTICUT   06108
*
*                      1-203-244-4657 OR 1-203-244-4470
*
* * * * * * * * * * * * * * * * * * * * * * * * * * * * * * * * * * *
* * * * * * * * * * * * * * * * * * * * * * * * * * * * * * * * * * *
*
*
*    LAST CHANGES WERE MADE AT JUL 20,81 BY
*                KLAUS HEIDEKRUEGER
*                C/O  SWISS BANK CORPORATION
*                CH - 4000   B A S E L
*                ENGELGASSE 12
*                ABT.  AUTOMATION
*                SWITZERLAND
*
*         TEL.  0041 - 61 - 203122
*
*
*               ALL MODIFICATIONS ARE HIGHLIGHTED WITH *** SBV
*
*              1. SUPPRESS DUMP PRINT IF CC MATCHES
*              1.1. MODIFY DUMP BITS IN DUMP AREA TO GET RID OF MESSAGE
*
*              2. LOAD THE IMS EXIT (RENAMED INTO DFS0905B) REL. 1.1.6.
*
*              3. FORMAT AND PRINT RTMWA
*              3.1. FORMAT INTERRUPT ADDRESS
*              3.2. FORMAT THE STORAGE THE INTERRUPT OCCURED
*                   - 320 UNTIL +320 BYTES.
*
*              4. CHANGE OF ESTAE EXIT AND RETRY ROUTINE,
*                 BECAUSE OF ERROR WITH LOADING REGS.WHEN RETRY
*
*
*              5. IF YOU HAVE INSTALLED THE SU 33, THE EQUATE
*                 'ABDFLAG2' IS CHANGED TO THE PROPER VALUE.
*                 IF NOT CHANGE THE &FLAG2 ON BEGINNING OF CODE !!!
*
*
*          ----------  N O T E  ---------
*
*              THE IMS - EXIT ROUTINE (DFS0905B) SHOULD BE
*              STORED INTO SYS1.LPALIB.
*              THAT SAVES YOU A LOT OF TROUBLE !!!!!!
*
* THIS ROUTINE GAINS CONTROL FROM IEAVAD08 !!!
*
*
*              THE MODUL AND THE CSECT HAS TO BE CALLED LIKE THAT
*              IF YOU WANT TO USE SMP TO IMPLEMENT THE EXIT TO YOUR
*              SYSTEM. IF YOU DON'T CHANGE IT TO IGC0905A.
*
* * * * * * * * * * * * * * * * * * * * * * * * * * * * * * * * * * *
*
* * * * * * * * * * * * * * * * * * * * * * * * * * * * * * * * * * *
         EJECT
IEAVADUS CSECT
         USING *,R15              TEMP. BASE               *** SBV
         QINIT  ADDR=AROUND                                *** SBV
         DROP   R15                                        *** SBV
         SAVE  (14,12)
         LR    R3,R15
         LA    R5,4095(0,R3)       NEXT BASE ADDR
         LA    R5,1(0,R5)
         USING IEAVADUS,R3,R5
         USING ABDPL,R12              BASE FOR DUMP PARM LIST  *** SBV
         LR    R12,R1                 ESTABLISH BASE           *** SBV
         LR    R2,R1               SAVE PARM ADDR
         LA    R0,SIZE             LOAD GETMAIN SUBPOOL AND LENGTH
         LA    R1,241              SUBPOOL
         SLL   R1,24               TO HOB
         OR    R0,R1               SET TO R0
         SPACE 2
         GETMAIN R,LV=(0)
         ST    R13,4(0,R1)
         SPACE 2
         LR    R13,R1              ADDRESS WORK AREA
         USING WORK,R13
         MVI   OSAM,0              CLEAR FLAG                  *** SBV
         L     R4,ADPLTCB          LOAD TCB ADDR   *** SBV
         L     R11,ADPLBUF         PRINT AREA ADDR   *** SBV
         L     R1,ADPLPRNT         LOAD PRINT ROUTINE ADDR
         ST    R1,PENTRY           SAVE PRINT ROUTINE ADDR
         BAL   R10,DUMPCHK
         BAL   R10,HDRPRINT        GO PRINT HEADERS
         EJECT
*--------------------------------------------------------------------*
*       ESTABLISH RECOVERY (REENTRANT)                               *
*--------------------------------------------------------------------*
    SPACE
  SPACE 2
         MVC   SAVE+12(ESTAELEN),ESTAELST  COPY LIST           *** SBV
         LA    R1,SAVE+12                  PASS ADDR           *** SBV
         ESTAE PARAM=(13),MF=(E,(1))      ISSUE ESTAE        *** SBV
        SPACE
   SPACE 5
         XC    ESTAECNT,ESTAECNT
         LA    R1,RETURN           LOAD RETURN ADDR
         STM   R0,R15,ESTAESAV     SAVE RETURN REGS
         SPACE
         L     R6,8(0,R4)          LOAD ADDR 1ST DEB
         LA    R6,0(0,R6)
         LTR   R6,R6               ANY DEBS
         BNZ   DEBCHK              YES
         SPACE 2
         MVC   0(L'NOCBMSG,R11),NOCBMSG   NO DM CTL BLOCKS
         BAL   R14,ABMSG           PRINT LINE
         SPACE 2
         BAL   R14,ABMSG           PRINT LINE
         EJECT
*--------------------------------------------------------------------*
*        INTERFACE TO IMS DUMP EXIT ROUTINE                          *
*--------------------------------------------------------------------*
   SPACE 2
RETURN  EQU   *
     SPACE 2
         SPACE 3
RETURN1  CLI   CCFLAG,X'00'        BYPASS COMPLETION CODE CHECK
         BE    RETURN3             YES, EXIT            *** SBV
         LA    R6,ABENDTAB         ABEND SUPPRESSION TABLE
         L     R4,ADPLTCB              GET CURRENT TCB ADDR    *** SBV
*
         CLC   TCBCMP(3,R4),SC7        IS IT S 0C7 ?            *** SBV
         BNE   RETURN2                 NO                       *** SBV
         L     R10,ASCBOLD             POINTER IN PSA           *** SBV
         L     R1,ASCBJBNI(R10)        POINT TO JOBNAME FIELD   *** SBV
         LTR   R1,R1                   IS IT ZERO ?             *** SBV
         BNZ   RETURN1A                NO                       *** SBV
         L     R1,ASCBJBNS(R10)        POINT TO JOBNAMEFIELD    *** SBV
RETURN1A CLI   0(R1),C'T'              TEST JOBNAME             *** SBV
         BNE   RETURN3                                          *** SBV
         SPACE 3
RETURN2  CLC   0(3,R6),=F'0'       END OF TABLE ENTRIES
         BE    RETURN3             YES, EXIT
         CLC   0(3,R6),TCBCMP(R4)  COMPLETION CODE MATCH        *** SBV
         BE    RETURN4             YES, BYPASS DUMP
         LA    R6,3(0,R6)          NEXT TABLE ENTRY
         B     RETURN2
         EJECT
RETURN3  MVI   CCFLAG,X'00'        ALLOW REST OF DUMP
         LA    R10,GOIMS    LOAD RETURN ADDR. OF PRINT ROUT.   *** SBV
         B     HDRPRINT              PRINT END HEADER          *** SBV
    SPACE 3
*--------------------------------------------------------------------*
*        INTERFACE TO IMS DUMP EXIT ROUTINE                          *
*--------------------------------------------------------------------*
   SPACE 2
GOIMS    EQU   *
         ESTAE 0                   CANCEL RECOVERY              *** SBV
   SPACE 2
         LOAD  EPLOC=IMSEXIT          LOAD IMS EXIT            *** SBV
         LR    R15,R0                 LOAD EP                 *** SBV
         LR    R1,R12                 LOAD PARM LIST          *** SBV
         BALR  R14,R15                LINK TO IMS EXIT        *** SBV
         LR    R10,R15                SAVE RC                 *** SBV
   SPACE 2
        DELETE EPLOC=IMSEXIT         DELETE IMS EXIT         *** SBV
        SPACE
        SPACE 2
***********************************************************************
* * *          DETERMINE ADDRESS SPACE ABENDING.                  * * *
***********************************************************************
         SPACE
         LTR   R10,R10                RC = 0 FROM IMS EXIT ? *** SBV
         BZ    TERMINAT               YES --> BATCH          *** SBV
   SPACE 2
         L      R15,4(R13)             GET HIGHER SA
         L      R15,28(R15)            GET HIS REG 2
         NI   APFSDATA(R15),255-SDATA NO SDATA TO DUMP          *** SBV
         NI   APFPDATA(R15),255-PDATA NO PDATA TO DUMP          *** SBV
         NI   ABDFLAG2(R15),255-FLAG2 NO SUB (EXEPT STATUS)     *** SBV
         LA    R15,4                  4 = CONTROL REGION     *** SBV
         CLR   R10,R15                                       *** SBV
         BH    TERMINAT               NO DUMP                *** SBV
         MVC    DUMP(ESDUMP),SDUMP     MOVE SDUMP CODE
        SPACE 2
         LA    R1,DUMP                                     *** SBV
         LA    R0,40(R1)     A(TITLE IN GTM-AREA)          *** SBV
         ST    R0,12(R1)     STORE IT INTO PARM LIST       *** SBV
         L     R1,12(R1)    GET TITLE                      *** SBV
         L     R14,PSATOLD-PSA(0) GET CURRENT TCB          *** SBV
         L     R14,TCBCMP-1(R14) GET CC                    *** SBV
         MVC   1(4,R1),=C'SNAP'  MOVE JUST IN CASE         *** SBV
         LA    R14,0(R14)     CLEAR HOB                    *** SBV
         LTR   R14,R14        SNAP ?                       *** SBV
         BZ    SYSD1          YES GO AHEAD                 *** SBV
         LR    R15,R14        SAVE CC                      *** SBV
         SRL   R14,12         CLEAR USER CC                *** SBV
         LTR   R14,R14        SYSTEM ?                     *** SBV
         BNZ   SYSD           YES                          *** SBV
         SPACE
         CVD   R15,DOUBLE     CONVERT USER                 *** SBV
         OI    DOUBLE+7,15    SET SIGN TO F                *** SBV
         UNPK  2(5,R1),DOUBLE+5(3) SAVE INTO TITLE         *** SBV
         MVC   1(2,R1),=C'U '                              *** SBV
         B     SYSD1          GET SVC DUMP                 *** SBV
         SPACE 2
SYSD     EQU   *                                           *** SBV
         STCM  R14,3,1(R1)    SAVE SYSTEM CC               *** SBV
         UNPK  DOUBLE(5),1(3,R1) UNPACK                    *** SBV
*        NC    DOUBLE(4),=X'0F'                            *** SBV
         TR    DOUBLE(4),TAB-240 TRANSLATE                 *** SBV
         MVC   3(3,R1),DOUBLE+1 MOVE INTO TITLE            *** SBV
         MVC   1(2,R1),=C'S '                              *** SBV
    SPACE 2
SYSD1    EQU   *                                           *** SBV
        L      R10,PSAAOLD-PSA(0)     GET CURRENT ASCB     *** SBV
        LH     R10,ASCBASID(R10)      AND ASID             *** SBV
        LA     R1,DUMP               LOAD CODE
        XC     SDECB,SDECB            CLEAR ECB
        LA     R0,SDECB               AND LOAD IT
        SPACE
        SDUMP  ASID=(R10),MF=(E,(1)),ECB=(R0)
        SPACE
        WAIT   ECB=SDECB
        SPACE 2
         SPACE 3
         MVC   0(L'SUPPMSG,R11),SUPPMSG
         BAL   R14,ABMSG           PRINT LINE
         SPACE 3
         MVC   0(L'SDUMPMSG,R11),SDUMPMSG                       *** SBV
         BAL   R14,ABMSG           PRINT LINE
         B     TERMINAT            EXIT
         SPACE 3
RETURN4  MVC   0(L'NODMPMSG,R11),NODMPMSG
         BAL   R14,ABMSG           PRINT LINE
         SPACE 2
         MVC   0(L'SUPPMSG,R11),SUPPMSG
         BAL   R14,ABMSG           PRINT LINE
         SPACE 3
         MVC   0(L'EXPLAIN,R11),EXPLAIN
         BAL   R14,ABMSG           PRINT LINE
   SPACE 2
      SPACE 2
         L    R15,4(R13)              GET HIGHER SA             *** SBV
         L    R15,28(R15)             GET HIS REG 2             *** SBV
         NI   APFSDATA(R15),255-SDATA NO SDATA TO DUMP          *** SBV
         NI   APFPDATA(R15),255-PDATA NO PDATA TO DUMP          *** SBV
         NI   ABDFLAG2(R15),255-FLAG2 NO SUB (EXEPT STATUS)     *** SBV
         B    RETURN3                 BRANCH TO IMS EXIT        *** SBV
   SPACE 2
TERMINAT EQU   *                                             *** SBV
         LA    R0,SIZE             LOAD GETMAIN SUBPOOL AND LENGTH
         LA    R1,241              SUBPOOL
         SLL   R1,24               TO HOB
         OR    R0,R1               SET TO R0
         LR    R1,R13
         L     R13,SAVE+4
   SPACE 2
         FREEMAIN R,LV=(0),A=(1)
   SPACE 2
         SR    R15,R15             ALLWAYS ZERO             *** SBV
         RETURN (14,12),RC=(15)
         EJECT
DUMPCHK  SR    R14,R14
         L     R15,12(0,R4)        TIOT ADDR
         LA    R15,24(0,R15)       DD ENTRIES
         MVI   CCFLAG,X'04'        COMPLETION CODE FLAG SET
         SPACE 3
DUMPCHK1 CLC   4(8,R15),=CL8'SBVABEND'  NO DUMP DD ENTRY      *** SBV
         BE    DUMPCHK4            YES, CONTINUE              *** SBV
         SPACE 3
DUMPCHK2 IC    R14,0(0,R15)        DD ENTRY LENGTH
         LTR   R14,R14             TIOT END
         BZ    TESTTSO             YES, SEE IF TSO          *** SBV
         AR    R15,R14             NEXT ENTRY ADDR
         B     DUMPCHK1
         SPACE 3
         SPACE 3
DUMPCHK4 MVI   CCFLAG,X'00'        SET NO COMP CODE CHECK
         BR    R10                 RETURN                      *** SBV
         SPACE 5
TESTTSO  EQU   *                                               *** SBV
         L     R14,ASCBOLD          GET CURRENT ASCB           *** SBV
         L     R14,ASCBCSCB(R14)    GET CSCB                   *** SBV
         CLI   CSCBTSO(R14),TSO     IS IT TSO USER ?           *** SBV
         BNER  R10                   NO RETURN TO MAIN         *** SBV
         SPACE
         LA    R14,ABENDTAB          GET ABEND TABLE           *** SBV
         LA    R1,ABENDTSO            LAST POINTER             *** SBV
SPECTSO  EQU   *                                               *** SBV
         CLC   TCBCMP(3,R4),0(R14)   SAME CC ?                 *** SBV
         BE    RETURN4               YES RETURN TO SVC 51      *** SBV
         LA    R14,L'ABENDTAB(R14)   GET NEXT ELEMENT          *** SBV
         CR    R14,R1                LAST REACHED ?            *** SBV
         BL    SPECTSO               NO TRY AGAIN              *** SBV
         BR    R10                   RETURN                    *** SBV
         EJECT
DEBCHK   TM    24(R6),X'0F'        DEBID VALID
         BO    DEBCHK3             YES
         SPACE 3
DEBCHK1  MVC   0(L'BADEBMSG,R11),BADEBMSG
         BAL   R14,ABMSG           PRINT LINE
         BAL   R14,ABMSG           PRINT LINE
         SPACE 3
DEBCHK2  L     R6,4(0,R6)          NEXT DEB
         NI    OSAM,255-SETOSAM    CLEAR OSAM FLAG             *** SBV
         LA    R6,0(0,R6)
         LTR   R6,R6               ANY MORE DEBS
         BNZ   DEBCHK              NEXT DEB                    *** SBV
  SPACE 3
        L   R4,ADPLTCB                GET CURRENT TCB ADDR.    *** SBV
        ICM  R2,7,TCBCMP(R4)           GET CMP-CODE            *** SBV
        BZ   RETURN                    NO CC = RETURN          *** SBV
  SPACE 3
         MVC   0(L'RTMHDR,R11),RTMHDR        HEADER
         BAL   R14,ABMSG           PRINT LINE
  SPACE 2
         LA    R2,10                      MAX. 10 RMT2WA      *** SBV
         L     R8,TCBRTWA(R4)             GET RTWA            *** SBV
RTMB     LA    R8,0(R8)                   CLEAR HOB           *** SBV
         LTR   R8,R8                      LAST OR ANY ?       *** SBV
         BZ    STORAGE                    FINISH              *** SBV
         ST    R8,FADDR               ADDR TO DUMP           *** SBV
         SR    R1,R1                                         *** SBV
         ICM    R1,7,9(R8)              GET LENGTH             *** SBV
         SRL   R1,2                   # OF FULLWORDS         *** SBV
         ST    R1,FWORDS              MOVE TO PARM           *** SBV
         BAL   R10,FORMAT             FORMAT AND PRINT       *** SBV
         L     R8,NEXTRTWA(R8)        NEXT RTWA              *** SBV
         BCT   R2,RTMB                BR TO MAINLINE         *** SBV
   SPACE  3
STORAGE   EQU    *
         LA    R1,MSGPRNT              ESTAE RETURN ADDR.     *** SBV
         STM   R0,R15,ESTAESAV         SAVE REG. FOR RETRY    *** SBV
         MVC   SAVECC,TCBCMP-1(R4)     SAVE ORIGN CC          *** SBV
         MVC   0(L'NAMEABND,R11),NAMEABND  MOVE NAME OF PGM   *** SBV
         L     R8,FADDR                 GET ADDR. OF RTMWA2   *** SBV
         CLI   RTM2ABNM(R8),0       ANY JOBNAME PRESENT ?      *** SBV
         BE    NMUNK                NO  SET DEFAULT            *** SBV
         MVC   L'NAMEABND(8,R11),RTM2ABNM(R8) MOVE PGM NAME   *** SBV
STORAGE1 EQU   *
  SPACE 3
         BAL   R14,ABMSG           PRINT LINE
         SPACE 2
         ST    R8,SAVERTM              SAVE RTM2 ADDR         *** SBV
         LR    R10,R8                  LOAD RTM2 ADDR          *** SBV
         L     R8,RTM2NXT1(R8)        GET INTERR. ADDR.       *** SBV
         LTR   R8,R8              ANY CC ?                    *** SBV
         BZ    RETURN             NO  RETURN                  *** SBV
         SR    R15,R15                            *** SBV
         IC    R15,RTM2ILC1(R10)       GET INST. LG             *** SBV
         TM    RTM2ICD1(R10),SEG       SEGMENT OR PAGE         *** SBV
         BO    SEGM                    YES -- DONT SUBSTR.     *** SBV
         SR    R8,R15                  GET INTERR. ADDR         *** SBV
SEGM     EQU   *
   SPACE 2
         ST    R8,FADDR           SAVE INTERRUPT ADDR.         *** SBV
         UNPK  L'AABEND(7,R11),FADDR+1(4)                      *** SBV
         MVI   6+L'AABEND(R11),C' '                            *** SBV
         NC    L'AABEND(6,R11),=8X'0F'                         *** SBV
         TR    L'AABEND(6,R11),TAB       TRANS INTERR. ADDR.    *** SBV
         MVC   0(L'AABEND,R11),AABEND     MOVE CONSTANT        *** SBV
    SPACE 2
         BAL   R14,ABMSG           PRINT LINE
    SPACE 2
         CLI   RTM2ICD1(R10),C7        IS IT S 0C7?             *** SBV
         BNE   NO0C7                   NO                       *** SBV
         CLI   0(R8),X'F7'             ZAP ?                    *** SBV
         BL    NO0C77                  MUST BE DIFF.            *** SBV
         SPACE 2
         MVC   0(L'S0C7,R11),S0C7      MOVE CONST.              *** SBV
         BAL   R14,ABMSG           PRINT LINE
         SPACE 2
         MVC   0(L'S0C7OP,R11),S0C7OP  MOVE TITLE               *** SBV
         MVI   1+L'S0C7OP(R11),X'F1'                            *** SBV
         SR    R15,R15                                          *** SBV
         IC    R15,1(R8)               GET LENGTH               *** SBV
         SRL   R15,4                   ELIMIN. 2. LENGTH        *** SBV
         BAL   R14,CONVLG              CONVERT                  *** SBV
         SPACE 2
         BAL   R14,ABMSG1          PRINT LINE
         SPACE 2
         SR    R14,R14                                          *** SBV
         ICM   R14,3,2(R8)             A(1.OP)                  *** SBV
         SRL   R14,12                                           *** SBV
         SLL   R14,2                   * 4 = BYTES              *** SBV
         LA    R0,RTM2ER0(R10)         A(REG0)                  *** SBV
         AR    R14,R0                  A(RX)                    *** SBV
         SR    R0,R0                                            *** SBV
         ICM   R0,3,2(R8)              GET DISPL.               *** SBV
         SLL   R0,20                   ELIM. REG.               *** SBV
         SRL   R0,20                   ONLY DISPL.              *** SBV
         L     R14,0(R14)              LOAD REG A(1.OP)         *** SBV
         AR    R14,R0                                           *** SBV
         ST    R14,FADDR               SAVE FOR FORMAT          *** SBV
         LA    R0,3                    FORMAT 3 WORDS           *** SBV
         ST    R0,FWORDS                                        *** SBV
         ST    R10,SAVERTM             SAVE A(INSTR.)           *** SBV
         BAL   R10,FORMAT              FORMAT                   *** SBV
         SPACE 2
         MVC   0(L'S0C7OP,R11),S0C7OP  MOVE TITLE               *** SBV
         MVI   1+L'S0C7OP(R11),X'F2'                            *** SBV
         SR    R15,R15                                          *** SBV
         IC    R15,1(R8)               GET LENGTH               *** SBV
         SLL   R15,28                  ELIM. 1. LENGTH          *** SBV
         SRL   R15,28                                           *** SBV
         BAL   R14,CONVLG              CONVERT                  *** SBV
         SPACE 2
         BAL   R14,ABMSG           PRINT LINE
         SPACE 2
         SPACE 2
         SR    R14,R14                                          *** SBV
         ICM   R14,3,4(R8)             GET SEC. OP              *** SBV
         L     R10,SAVERTM             GET RMT2                 *** SBV
         SRL   R14,12                  ELIM. DISPL.             *** SBV
         SLL   R14,2                   * 4 BYTES                *** SBV
         LA    R0,RTM2ER0(R10)         A(REGS.)                 *** SBV
         AR    R14,R0                  GET SPEC.REG.            *** SBV
         SR    R0,R0                                            *** SBV
         ICM   R0,3,4(R8)              GET DISPL.               *** SBV
         SLL   R0,20                   ELIM.REG.                *** SBV
         SRL   R0,20                   ONLY DISPL.              *** SBV
         L     R14,0(R14)              GET ADDR.                *** SBV
         AR    R14,R0                  GET 2.OP.                *** SBV
         ST    R14,FADDR               FOR FORMAT               *** SBV
         LA    R0,3                    FORMAT 3 WORDS           *** SBV
         ST    R0,FWORDS                                        *** SBV
         BAL   R10,FORMAT              FORMAT IT                *** SBV
         SPACE 2
NO0C7    EQU   *                                                *** SBV
         MVC   0(L'STORABND,R11),STORABND     STORAGE RANGE   *** SBV
         BAL   R14,ABMSG           PRINT LINE
         SPACE 2
         LA    R10,320                 GET 320 BYTES BEFORE     *** SBV
         SR    R8,R10             A(320 BYTES BEFORE)         *** SBV
         BM    RETURN             OUT OF RANGE                *** SBV
         ST    R8,FADDR           STORE FOR FORMAT            *** SBV
         SRL   R10,1              # FW * 2                    *** SBV
         ST    R10,FWORDS         FOR FORMAT                  *** SBV
         BAL   R10,FORMAT         FORMAT STORAGE RANGE        *** SBV
         B     RETURN             RETURN                      *** SBV
    SPACE 3
MSGPRNT  EQU   *                                              *** SBV
         L     R4,ADPLTCB         GET CURRENT TCB ADDR.       *** SBV
         MVC   TCBCMP-1(4,R4),SAVECC   RESTORE CC             *** SBV
        B     RETURN                                          *** SBV
   SPACE 2
NO0C77   EQU   *                                                *** SBV
         MVI   CCFLAG,0                AS 'SBVABEND' DEF.       *** SBV
         B     NO0C7                                            *** SBV
         SPACE 2
NMUNK    EQU   *                                               *** SBV
         MVC   L'NAMEABND(L'MODUNK,R11),MODUNK    MOVE DEFAULT *** SBV
         B     STORAGE1                                        *** SBV
    EJECT
DEBCHK3  L     R7,24(0,R6)         DCB ADDR
         LA    R7,0(0,R7)
         LTR   R7,R7
         BZ    DEBCHK1             NO DCB ADDR, ERROR MSG
         L     R10,=F'-20'         - 20 FOR CALC.              *** SBV
         AR    R10,R6              A(OSAM)                     *** SBV
         CLC   0(4,R10),COSAM      CONSTANT OSAM ?             *** SBV
         BE    ISOSAM              YES SET BIT                 *** SBV
   SPACE
         CLC   152(L'DFSAOS,R7),DFSAOS  OSAM DCB ?           *** SBV
         BNE   NOOSAM              YES CANT BE OSAM          *** SBV
         L     R10,44(R7)          LOAD OSAM DEB              *** SBV
         LA    R10,0(R10)          CLEAR HOB                  *** SBV
         CLR   R10,R6              SAME DEB ?                 *** SBV
         BE    NOOSAM              YES MUST BE THE SAME       *** SBV
   SPACE
ISOSAM   OI    OSAM,SETOSAM        INDICATE OSAM             *** SBV
         SPACE
NOOSAM   EQU   *
         BAL   R10,ESTAESET        SET UP ESTAE RETURN
         BAL   R10,DDFORM          FORMAT DD INFO
         SPACE
         BAL   R10,ESTAESET        SET UP ESTAE RETURN
         BAL   R10,DEBFORM         FORMAT DEB
         SPACE
         BAL   R10,ESTAESET        SET UP ESTAE RETURN
         BAL   R10,DCBFORM         FORMAT DCB
         SPACE
         BAL   R10,ESTAESET
         BAL   R10,JFCBFORM        GO FORMAT JFCB
         SPACE
         BAL   R10,ESTAESET        SET UP ESTAE RETURN
         BAL   R10,UCBFORM         FORMAT UCB
         SPACE
         BAL   R10,ESTAESET
         BAL   R10,RECFORM         GO FORMAT CURRENT RECORD
         SPACE
         CLI   0(R7),X'A0'         ACB
         BE    DEBCHK4             YES, NO IOB MSG
         TM    26(R7),X'62'        PS, DA, OR PO
         BZ    DEBCHK4             NO, NO IOB MSG
         TM    OSAM,SETOSAM        IS IT OSAM ?                *** SBV
         BO    DEBCHK2             YES DONT FORMAT IOB         *** SBV
   SPACE
         BAL   R10,ESTAESET        SET UP ESTAE RETURN
         BAL   R10,IOBFORM         FORMAT IOB
   SPACE
         BAL   R14,ABMSG           PRINT LINE
         B     DEBCHK2
         SPACE 3
DEBCHK4  MVC   0(L'IOBHDR,R11),IOBHDR
         BAL   R14,ABMSG           PRINT LINE
         MVC   0(L'NOIOBMSG,R11),NOIOBMSG
         BAL   R14,ABMSG           PRINT LINE
         BAL   R14,ABMSG           PRINT LINE
         BAL   R14,ABMSG           PRINT LINE
         B     DEBCHK2             NEXT DEB
         EJECT
DDFORM   LH    R2,40(0,R7)         TIOT OFFSET
         SR    R8,R8               CLEAR UCB ADDR
         MVC   DDMSG,DDMSGX
         MVC   DCBMSG,DCBMSGX
         MVC   EXTMSG,EXTMSGX
         MVC   UNITMSG,UNITMSGX
         MVC   CCHHMSG,CCHHMSGX
         LTR   R2,R2
         BP    DDFORM1             DCB OPEN, CONTINUE
         MVC   0(L'DDNOPMSG,R11),DDNOPMSG
         BAL   R14,ABMSG           PRINT LINE
         B     DDFORM5             GO FORMAT DCB INFO
         SPACE 3
DDFORM1  L     R1,12(0,R4)         TIOT ADDR
         LA    R2,0(R2,R1)         OFFSET INTO TIOT
         MVC   DDNAME(8),4(R2)     DDNAME TO MSG
         MVC   RECLEN(4),=6C'*'
         MVC   LRECL(5),=6C'*'
         MVC   BLKSIZE(5),=6C'*'
         XC    JFCBADDR,JFCBADDR
         MVC   JFCBADDR+1(3),12(R2) SAVE JFCB ADDR
         L     R1,JFCBADDR         LOAD JFCB ADDR
         LTR   R1,R1               ANY JFCB PRESENT
         BZ    DDFORM1A            NO,BYPASS PRINT
         LA    R1,16(0,R1)         POINT TO REAL JFCB START
         ST    R1,JFCBADDR         SAVE ACTUAL ADDR
         MVC   DSNAME(44),0(R1)    MOVE DSNAME TO MSG
         LH    R14,104(0,R1)       LRECL
         CVD   R14,DOUBLE
         UNPK  LRECL(5),DOUBLE+5(3)
         OI    LRECL+4,X'F0'
         LH    R14,102(0,R1)       BLKSIZE
         CVD   R14,DOUBLE
         UNPK  BLKSIZE(5),DOUBLE+5(3)
         OI    BLKSIZE+4,X'F0'