         MACRO
&NAME    PRIME &REG=12,&SAVE=,&ID=,&LV=0
.* PRIME WILL SAVE REGISTERS, CREATE A NEW SAVE AREA, CHAIN THE NEW
.* SAVE AREA TO THE CALLERS SAVE AREA, ESTABLISH ADDRESSABILITY,
.* OPTIONALLY OBTAIN ADDITIONAL STORAGE AND IN GENERAL PERFORM THE
.* NECESSARY ENTRY LINKAGE.
.* IF THE USER DOES NOT SPECIFY WHAT REGISTER HE REQUIRES FOR A BASE,
.* TWELVE IS USED.  NOTE..IF REG= IS SPECIFIED TO BE 0, 1, 13, 14, OR
.* 15  A WARNING MESSAGE IS ISSUED.
.* IF THE USER SPECIFIES A SAVE AREA VIA THE SAVE= OPERAND THEN PRIME
.* WILL CHAIN THE USERS SAVE AREA TO THE CALLERS SAVE AREA. IF THE
.* USER DOES NOT SPECIFY SAVE,THEN PRIME WILL OBTAIN A NEW SAVE AREA
.* VIA THE GETMAIN SVC.  AN ADDITIONAL AMOUNT OF STORAGE MAY BE
.* OBTAINED AT THIS TIME BY SPECIFIEING THE LV=, OPERAND.  IF LV IS NOT
.* SPECIFIED IN REGISTER NOTATION, 4023 IS THE MAXIMUM VALUE.
.* IF THE USER SPECIFIES SAVE=NONE, PRIME WILL NOT OBTAIN A NEW AREA.
.* REG 13 WILL POINT TO THE NEW 18 WORD SAVE AREA FOLLOWED BY THE EXTRA
.* STORAGE AREA.
         LCLA  &A,&B
         LCLC  &E,&F,&G,&H
         MNOTE *,'&REG WILL BE USED AS A BASE REGISTER'
         AIF   ('&NAME' EQ '').NONAME
&NAME    DS    0H
.NONAME  ANOP
         AIF   ('&ID' EQ '').CONT4
         AIF   ('&ID' EQ '*').SPEC
&A       SETA  ((K'&ID+2)/2)*2+4
         BAL   15,&A.(0,15)             GET PGM MASK AND BRANCH AROUND
         USING *,&REG
&A       SETA  K'&ID
         DC    AL1(&A)
.CONTB   AIF   (&A GT 32).SPLIT
.CONTAA  AIF   (&A GT 8).BRAK
&E       SETC  '&ID'(&B+1,&A)
         DC    CL&A'&E'
         AGO   .CONT1
.BRAK    ANOP
&E       SETC  '&ID'(&B+1,8)
         DC    CL8'&E'
&B       SETA  &B+8
&A       SETA  &A-8
         AGO   .CONTAA
.SPLIT   ANOP
&E       SETC  '&ID'(&B+1,8)
&F       SETC  '&ID'(&B+9,8)
&G       SETC  '&ID'(&B+17,8)
&H       SETC  '&ID'(&B+25,8)
         DC    CL32'&E.&F.&G.&H'
&B       SETA  &B+32
&A       SETA  &A-32
         AGO   .CONTB
.SPEC    AIF   ('&NAME' EQ '').CSECTN
&E       SETC  '&NAME'
&A       SETA  1
.CONTQ   AIF   ('&E'(1,&A) EQ '&E').LVE
&A       SETA  &A+1
         AGO   .CONTQ
.LVE     ANOP
&B       SETA  ((&A+2)/2)*2+4
         BAL   15,&B.(0,15)             GET PGM MASK AND BRANCH AROUND
         USING *,&REG
         DC    AL1(&A)
         DC    CL&A'&E'
         AGO   .CONT1
.CSECTN  AIF   ('&SYSECT' EQ '').E4
&E       SETC  '&SYSECT'
&A       SETA  1
         AGO   .CONTQ
.E4      IHBERMAC 78,360
.CONT4   ANOP
         BALR  15,0                     R15 NOW CONTAINS PGM MASK
         USING *,&REG
.CONT1   ANOP
         AIF   ('&REG' EQ '0' OR '&REG' EQ '1' OR '&REG' EQ '13').ERR1
         AIF   ('&REG' EQ '14' OR '&REG' EQ '15').ERR1
.CONT3   ANOP
         DS    0H
         STM   14,12,12(13)             SAVE REGS IN CALLERS AREA
         LR    &REG,15                  SET TRUE BASE EQUAL EP
         AIF ('&SAVE' EQ 'NONE').A
         AIF   ('&SAVE' EQ '').C
         AIF   ('&SAVE'(1,1) EQ '(').F
         LA    1,&SAVE                  SET R1 EQ USERS SAVE ADDRESS
         AGO   .D
.F       ANOP
         AIF   ('&SAVE' EQ '(1)').D
         LR    1,&SAVE(1)               PICK UP USERS SAVE AREA
         AGO   .D
.C       ANOP
         AIF   ('&LV'(1,1) EQ '(').E
.*         AIF   ('&LV' GT '4023').ERR2
         LA    0,(&LV.+72+15)/16        PARAMETER FOR GETMAIN
         SLL   0,4                      PARAMETER FOR GETMAIN /*8039*/
         AGO   .CONT2
.E       ANOP
         AIF   ('&LV' EQ '(0)').CONT2
         LA    0,72(&LV(1).,0)          PARAMETER FOR GETMAIN
.CONT2   ANOP
         BAL   1,*+4                    INDICATE GETMAIN
         SVC   10                       ISSUE SVC 10
         ST    0,0(0,1)                 SAVE LENGTH IN 1ST WORD
.D       ANOP
         XC    4(68,1),4(1)             CLEAR AREA
         ST    1,8(0,13)                CHAIN FORWARD
         ST    13,4(0,1)                CHAIN BACKWARD
         LM    0,1,20(13)               RESET R0 AND R1
         L     13,8(0,13)               SET SAVE AREA REGISTER
.A       ANOP
         MEXIT
.ERR1    MNOTE 'ILLEGAL BASE REGISTER SPECIFIED'
         AGO   .CONT3
.ERR2    MNOTE 'LV GT 4023, LV REQUEST NOT HONORED'
         LA    0,72(0,0)                PARAMETER FOR GETMAIN
         AGO   .CONT2
         MEND
         MACRO
&NAME    TERME &OP=,&SAVE=,&LV=0
.* TERME WILL RESTORE REGISTERS, UNCHAIN SAVE AREAS, RELEASE DYNAMIC
.* STORAGE OBTAINED BY THE PRIME MACRO, RESET THE PGM MASK AND IN
.* GENERAL PERFORM THE NECESSARY EXIT LINKAGE.
.* TERME WILL FREE THE USERS SAVE AREA PLUS THE NUMBER OF BYTES
.* SPECIFIED BY THE LV OPERAND UNLESS THE USER IMPLIES THAT THE SAVE
.* AREA WAS NOT OBTAINED VIA A GETMAIN.  THE USER IMPLIES THIS BY
.* SPECIFYING SAVE= SOME VALUE OR SYMBOL.
.* IF THE USER SPECIFIED SAVE=NONE IN THE PRIME MACRO, HE SHOULD DO
.*  THE SAME FOR TERME.
.* THE USER MAY CHOOSE TO FOLLOW THE TERME MACRO WITH THE XCTL MACRO
.* RATHER THAN BRANCH ON 14.  THE USER ACCOMPLISHES THIS BY CODING
.* OP=XCTL.
         AIF   ('&NAME' EQ '').F
&NAME    DS    0H
.F       ANOP
         AIF ('&SAVE' EQ 'NONE').C
         L     13,4(0,13)              GET PTR TO USERS AREA
         STM   0,1,20(13)               TEMPORARY SAVE OF R0 AND R1
         AIF   ('&SAVE' NE '').C
         AIF   ('&LV'(1,1) EQ '(').E
         AIF   ('&LV' EQ '0').CONT
         AIF   ('&LV' GT '4023').ERR
         LA    0,&LV.+72(0,0)           PARAMETER FOR FREEMAIN
         AGO   .CONT
.E       ANOP
         AIF   ('&LV' EQ '(0)').CONT
         LA    0,72(&LV(1).,0)          PARAMETER FOR FREEMAIN
.CONT    ANOP
         L     1,8(0,13)                GET SAVE AREA ADDRESS
         LA    1,0(0,1)                 INDICATE FREEMAIN
         AIF   ('&LV' NE '0').CONTC
         L     0,0(0,1)                 LENGTH IS IN 1ST WORD OF AREA
.CONTC   ANOP
         SVC   10                       ISSUE SVC 10
.C       ANOP
         L     14,16(0,13)              RESET
         SPM   14                       PGM MASK
         L     14,12(0,13)              RESTORE
         LM    0,12,20(13)              REGISTERS
         XC    8(4,13),8(13)            DEQUEUE SAVE AREA
         AIF   ('&OP' EQ 'XCTL').D
         BR    14                       RETURN TO CALLER
         MEXIT
.D       ANOP
         BALR  15,0                     ESTABLISH ADDRESSABILITY
         USING *,15
         MEXIT
.ERR     MNOTE 'LV GT 4023, LV REQUEST NOT HONORED'
         LA    0,72(0,0)                PARAMETER FOR FREEMAIN
         AGO   .CONT
         MEND
         MACRO
         REGS
R0       EQU   0
R1       EQU   1
R2       EQU   2
R3       EQU   3
R4       EQU   4
R5       EQU   5
R6       EQU   6
R7       EQU   7
R8       EQU   8
R9       EQU   9
RA       EQU   10
RB       EQU   11
RC       EQU   12
RD       EQU   13
RE       EQU   14
RF       EQU   15
R10      EQU   10
R11      EQU   11
R12      EQU   12
R13      EQU   13
R14      EQU   14
R15      EQU   15
         MEND
         MACRO
&SYM     SYSGET &EODAD=EODAD,&DDNAME=SYSIN,&LRECL=80,&RECFM=,          X
               &BLKSIZE=80
         AIF   (K'&SYM EQ 0).NOSYM
         AIF   (K'&SYM GT 5).ERRSYM
         AIF   (K'&DDNAME GT 8).DDNERR
         AIF   (K'&EODAD GT 8).ERREOD
       MNOTE *,'DCB = DDNAME=&DDNAME,DSORG=PS,MACRF=GL,EODAD=&EODAD'
       MNOTE *,'          DD CARD CHANGES WILL WORK FOR '
       MNOTE *,'      LRECL=&LRECL,BLKSIZE=&BLKSIZE,RECFM=&RECFM'
***********************************************************************
*        THIS MACRO COURTESY OF D.R.CHANEY, MILWAUKEE, FE-246         *
***********************************************************************
         DS    0H
&SYM     ST    14,&SYM.14 .            SAVE RETURN REG
         TM    &SYM.DCB+48,X'10' .     IS DCB OPEN
         BC    1,&SYM.1 .              YES - BYPASS OPEN CODE
         OPEN  (&SYM.DCB,(INPUT))
         TM    &SYM.DCB+48,X'10' .     DID DCB OPEN
         BC    1,&SYM.1 .              YES
         WTO   '&SYM.DCB IS NOT OPEN - CHECK DD CARD',ROUTCDE=11
         B     &SYM.EOD
&SYM.1   GET   &SYM.DCB
         L     14,&SYM.14 .            RESTORE RETURN REG
         BR    14 .                    RETURN
&SYM.XIT CLC   &SYM.DCB+62(2),=H'0' .  IS BLOCK SIZE THERE
         BNE   &SYM.3 .                IF SO SKIP
         MVC   &SYM.DCB+62(2),=H'&BLKSIZE' .MOVE IN SIZE
&SYM.3   CLC   &SYM.DCB+82(2),=H'0' .  IS LRECL HERE
         BNE   &SYM.4 .                IF SO SKIP
         MVC   &SYM.DCB+82(2),=H'&LRECL' .   MOVE IN LRECL
&SYM.4   CLI   &SYM.DCB+36,X'00' .     IS RECFM THERE
         BNE   &SYM.5 .                BRANCH IF THERE
         MVI   &SYM.DCB+36,X'90' .     MOVE IN DEFAULT RECFM FB
&SYM.5   BR    14 .                    RETURN TO OPEN
&SYM.EOD CLOSE &SYM.DCB
         FREEPOOL &SYM.DCB
         B     &EODAD .                GO TO USERS EODAD RTN
&SYM.14  DS    1F .                    RETURN REG SAVE AREA
&SYM.LST DC    X'85' .                 DCB OPEN EXIT
         DC    AL3(&SYM.XIT) .         POINTER TO XIT RTN
&SYM.DCB DCB   DDNAME=&DDNAME,DSORG=PS,MACRF=(GL),EODAD=&SYM.EOD,      ,
               EXLST=&SYM.LST,RECFM=&RECFM
         AGO   .END
.ERRSYM MNOTE 8,'8,*** LABEL ON SYSGET MACRO MUST BE LESS THAN SIX'
         AGO   .END
.NOSYM  MNOTE 8,'8,*** SYSGET MACRO MUST HAVE A LABEL'
         AGO   .END
.DDNERR MNOTE 8,'8,*** DDNAME LARGER THAN EIGHT CHARACTERS'
         AGO   .END
.ERREOD MNOTE 8,'8,*** MAXIMUM LABEL SIZE IS EIGHT CHARACTERS'
.END     MEND
         MACRO
&SYM     SYSPUT &DDNAME=SYSPUNCH,&LRECL=80,&RECFM=,&BLKSIZE=80
         AIF   (K'&SYM GT 5).ERRSYM
         AIF   (K'&SYM EQ 0).NOSYM
         AIF   (K'&DDNAME GT 8).DDNERR
       MNOTE *,'DCB = DDNAME=&DDNAME,DSORG=PS,MACRF=PM'
       MNOTE *,'             DD CARD CHANGES WILL WORK FOR'
       MNOTE *,'      LRECL=&LRECL,BLKSIZE=&BLKSIZE,RECFM=&RECFM'
***********************************************************************
*        THIS MACRO COURTESY OF D.R.CHANEY, MILWAUKEE, FE-246         *
***********************************************************************
&SYM     DS    0H
         STM   14,1,&SYM.14 .          SAVE REGS
         TM    &SYM.DCB+48,X'10' .     IS DCB OPEN
         BC    1,&SYM.1 .              YES - BYPASS OPEN CODE
         OPEN  (&SYM.DCB,(OUTPUT))
         TM    &SYM.DCB+48,X'10' .     DID DCB OPEN
         BC    1,&SYM.1 .              YES
         B     &SYM.1S
&SYM.1   L     0,&SYM.14+12 .          SET DATA REG
         PUT   &SYM.DCB,(0)
&SYM.1S  DS    0H
         LM    14,1,&SYM.14 .          RESTORE REGS
         BR    14 .                    RETURN
&SYM.XIT CLC   &SYM.DCB+62(2),=H'0' .  IS BLKSIZE THERE
         BNE   &SYM.3 .                IF SO SKIP
         MVC   &SYM.DCB+62(2),=H'&BLKSIZE' MOVE IN BLKSIZE
&SYM.3   CLC   &SYM.DCB+82(2),=H'0' .  IS LRECL THERE
         BNE   &SYM.4 .                IF SO SKIP
         MVC   &SYM.DCB+82(2),=H'&LRECL' MOVE IN LRECL
&SYM.4   CLI   &SYM.DCB+36,X'00' .     IS RECFM THERE
         BNE   &SYM.5 .                BRANCH IF THERE
         MVI   &SYM.DCB+36,X'90' .     MOVE IN DEFAULT RECFM FB
&SYM.5   BR    14 .                    RETURN TO OPEN
&SYM.14  DS    4F .                    REG SAVE AREA
&SYM.LST DC    X'85' .                 OPEN EXIT LIST
         DC    AL3(&SYM.XIT) .         ENTRY FOR OPEN EXIT
&SYM.DCB DCB   DDNAME=&DDNAME,DSORG=PS,MACRF=(PM),EXLST=&SYM.LST,      X
               RECFM=&RECFM
         AGO   .END
.ERRSYM MNOTE 8,'8,*** LABEL ON SYSPUT MACRO MUST BE LESS THAN SIX'
         AGO   .END
.NOSYM  MNOTE 8,'8,*** SYSPUT MACRO MUST HAVE A LABEL'
         AGO   .END
.DDNERR MNOTE 8,'8,*** DDNAME LARGER THAN EIGHT CHARACTERS'
.END     MEND
         MACRO
&SYM     SYSPRINT &HEADER1=,&HEADER2=,&LINES=56,&DDNAME=SYSPRINT,      X
               &RECFM=FBA,&LRECL=133,&BLKSIZE=0
         AIF   (K'&SYM EQ 0).NOSYM
         AIF   (K'&SYM GT 5).ERRSYM
         AIF   (K'&DDNAME GT 8).DDNERR
         AIF   ('&LRECL' GT '133').ERRLEN
         MNOTE *,'DCB = DDNAME=&DDNAME,LRECL=&LRECL,LINES=&LINES'
         AIF   ('&HEADER1' EQ '').HD1
         MNOTE *,'    &HEADER1 IS FIRST HEADER LINE'
         AIF   ('&HEADER2' EQ '').HD2
         MNOTE *,'    &HEADER2 IS SECOND HEADER LINE'
.HD2     MNOTE *,'    THE FIRST BYTE OF ANY BUFFER SPECIFIED WILL'
         MNOTE *,'    BE USED BY THIS ROUTINE FOR ASA CHARACTERS'
         MNOTE *,'    AND UNPREDICTABLE RESULTS MAY OCCUR IF USED.'
***********************************************************************
*        THIS MACRO COURTESY OF D.R.CHANEY, MILWAUKEE, FE-246         *
***********************************************************************
         DS    0H
&SYM     NOP   DRC&SYSNDX.C .          NOP BRANCH SET AFTER OPEN
         NOP   DRC&SYSNDX.D .          NOP BRANCH SET AFTER OPEN
         STM   14,2,DRC&SYSNDX.B .     SAVE USERS REGS
         LA    1,DRC&SYSNDX.A .        LOAD ADDRESS OF OPEN LIST
         SVC   19 .                    ISSUE OPEN SVC
         TM    &SYM.DCB+48,X'10' .     DID DCB OPEN
         BC    1,&SYM.1 .              YES
         LM    14,2,DRC&SYSNDX.B .     RESTORE REGISTERS
         BR    14
&SYM.1   DS    0H
         OI    &SYM.+5,C'0' .          SET NOP TO BRANCH
         OI    &SYM.+1,C'0' .          SET FIRST NOP TO BRANCH
         AIF   ('&HEADER1' EQ '').HD4
DRC&SYSNDX.F MVI &HEADER1,C'1' .       SET CARRIAGE CONTROL
         PUT   &SYM.DCB,&HEADER1
         AIF   ('&HEADER2' EQ '').HD5
         MVI   &HEADER2,C'-' .         SET TRIPLE SPACE AFTER SKIP
         PUT   &SYM.DCB,&HEADER2
         AGO   .HD5
.HD4     L     15,DRC&SYSNDX.B+12 .    GET POINTER TO RECORD
DRC&SYSNDX.E MVI 0(15),C'1' .            SKIP TO ONE FIRST TIME
         LA    2,&LINES.+1 .           GET LINE COUNT
         AGO   .HD55
.HD5     L     15,DRC&SYSNDX.B+12 .    PICK UP DATA POINTER
         MVI   0(15),C'0' .            SET DOUBLE SPACE AFTER SK97
         LA    2,&LINES.+1 .           PICK UP LINE COUNT
.HD55    ANOP
DRC&SYSNDX.G BCT 2,DRC&SYSNDX.H .      BR TO PRINT FOR NUMBER OF LINES
         AIF   ('&HEADER1' NE '').HD6
         B     DRC&SYSNDX.E .          START NEW PAGE
         AGO   .P4
.HD6     B     DRC&SYSNDX.F .          GO TO DO SKIP AND PRINT HDR
.P4      ANOP
DRC&SYSNDX.H PUT &SYM.DCB,(15)
         ST    2,DRC&SYSNDX.J .        SAVE THE LINE COUNT
         LM    14,2,DRC&SYSNDX.B .     RESTORE USERS REGS
         MVI   0(1),C' ' .             PLACE BLANK INTO CARRIAGE CONTR
         MVC   1(&LRECL.-1,1),0(1) .   CLEAR THE BUFFER
         BR    14 .                    RETURN
DRC&SYSNDX.D STM 14,2,DRC&SYSNDX.B .   SAVE REGS ALWAYS
         AIF   ('&HEADER1' EQ '').P6
         B     DRC&SYSNDX.F .          GO TO HEADER ROUTINE
         AGO   .P5
.P6     ANOP
         L     15,DRC&SYSNDX.B+12 .    PICK UP POINTER TO DATA
         B     DRC&SYSNDX.E .          GO TO HEADER RTN
.P5      ANOP
DRC&SYSNDX.C STM 14,2,DRC&SYSNDX.B .   SAVE REGS ALWAYS
         L     2,DRC&SYSNDX.J .        RESTORE THE LINE COUNTER
         L     15,DRC&SYSNDX.B+12 .    PICK UP POINTER TO DATA
         MVI   0(15),C' ' .            MOVE X'40' TO ASA
         B     DRC&SYSNDX.G .          GO TEST FOR LINE COUNT
DRC&SYSNDX.M CLC &SYM.DCB+62(2),=H'0' . IS BLOCK SIZE THERE
         BNE   DRC&SYSNDX.L .          IF SO SKIP
         MVC   &SYM.DCB+62(2),=H'&LRECL'  .     MOVE IN DEFAULT SIZE
DRC&SYSNDX.L BR 14 .               RETURN TO OPEN
DRC&SYSNDX.B DS 5F .                   PRINT RTNS SAVE AREA
DRC&SYSNDX.J DS 1F .                   SAVE FOR LINE COUNTER
DRC&SYSNDX.K DC X'85' .                EXIT LIST FOR OPEN
         DC    AL3(DRC&SYSNDX.M) .     POINTER TO THE EXIT ROUTINE
DRC&SYSNDX.A DC AL1(143) .             OPTION BYTE FOR OPEN
         DC    AL3(&SYM.DCB) .         DCB ADCON FOR OPEN
&SYM.DCB DCB   DDNAME=&DDNAME,LRECL=&LRECL,RECFM=&RECFM,DSORG=PS,      X
               MACRF=(PM),EXLST=DRC&SYSNDX.K,BLKSIZE=&BLKSIZE
         MEXIT
.HD1     AIF   ('&HEADER2' EQ '').HD2
         MNOTE 8,'8,*** HEADER2 INVALID WITHOUT HEADER1 SPECIFIED'
         MEXIT
.ERRLEN MNOTE 8,'8,*** LRECL TOO LARGE FOR SYSPRINT'
         MEXIT
.NOSYM  MNOTE 8,'8,*** SYSPRINT MACRO MUST HAVE A LABEL'
         MEXIT
.ERRSYM MNOTE 8,'8,*** LABEL ON SYSPRINT MACRO MUST BE LESS THAN SIX'
         MEXIT
.DDNERR MNOTE 8,'8 *** MAXIMUM DDNAME SIZE IS EIGHT CHARACTERS'
         MEXIT
.BUFERR  MNOTE 8,'8,*** NO BUFFER SUPPLIED, EXECUTION IMPOSSIBLE'
.END     MEND
TSGTFMAP TITLE 'TSGTFMAP-SHOW DISK USAGE FROM GTF DATA - 5/20/78'
***********************************************************************
* DESC: READ GTF DATA AND SUMMARIZE DASD SIO/IO RECORDS.
*        BY DEVICE: CALCULATE NUMBER SIO CC = 0-3,
*              TOTAL CYLINDERS SEEKED,
*              AVERAGE CYLINDERS SEEKED,
*              AVERAGE IO TIME,
*              MAX. IO TIME OVER RUN,
*              BUILD TWO ARRAYS FOR DRIVE/JOB STATS.
*              OPTIONALLY PRODUCE A HISTOGRAM OF SEEKS
*
*        DRIVE ARRAY:
*        SLOT SIZE(IN CYLINDERS) = ((LINESIZE-OFFSET)/
*              (#DIGITS DISPLAYED PER SLOT))
*        EXAMPLE: ((133-11)/3)=40 SETS OF NUMBERS CAN FIT
*              ON A LINE.
*        THIS ARRAY IS USED AS FOLLOWS:
*         DT(N,M)=DT(N,M)+1 WHERE:
*          N=FROM SLOT #,
*          M=TO   SLOT #.
*         IF HISTOGRAM OPTION IS USED, ARRAY IS NOW A VECTOR.
*          DT(N)=DT(N)+1 WHERE N IS CYL #.
*
*        JOB ARRAY:
*        JOB TABLE IS AN N BY N MATRIX,
*           WHERE N IS NUMBER OF JOBS IN INCORE TABLE.
*        THIS ARRAY IS USED AS FOLLOWS:
*         JT(N,M)=JT(N,M)+1 WHERE:
*          N=JOB# THAT WAS HELD UP.
*          M=JOB# THAT HELD JOB N UP.
*         HELD UP MEANS JOB N HAD TO SEEK MORE THAN 'SEEKINTF' CYLS.
*
*        JCL:  //MAP EXEC PGM=TSGTFMAP,REGION=(100K+6K*#DASD),
*              // PARM=XXXX WHERE XXXX=HIST OR MATR, DEFAULT=HIST
*              //* MATR=MATRIX OPTION, HIST=HISTOGRAM OPTION.
*              //SYSPRINT DD SYSOUT=C
*              //SYSUT1   DD DSN=GTFDATA,DISP=SHR
*        SUMMARY OF CHANGES FOR 5/20/78:
*              CYLINDER SEEK HISTOGRAM
*              CSW BREAKDOWN FOR SIO CC=1
*              DYNAMIC INITIALIZATION OF MAXIMUM # DASD SUPPORTED
*              SOME INITIAL CODE FOR AN I/O CONCURRENCE (NOT WORKING)
*        QUESTIONS:
*              CLARK HUNTER  PHONE: 313-497-0524/0533.
*              CHRYSLER SERVICE AND PARTS SUPPLY DIVISION
*              26311 LAWRENCE AVENUE
*              CENTERLINE, MICHIGAN  48015
*               CIMS: 423-10-17
***********************************************************************
         LCLB  &NOXYTEX       IF CALCOMP/XYTEX IN SYSTEM
&NOXYTEX SETB  1                   CALCOMP ATL IN SYSTEM
*        I AM USING THEIR PROPRIETARY DATE/TIME SUBROUTINE
TSGTFMAP CSECT                      GTF DISK USAGE MAPPER
         PRINT NOGEN                SAVE PAPER/TREES
         REGS                       SYMBOLIC REGS
         PRIME ID=*,LV=DSASIZE      SET UP SAVE AREAS/CHAIN/BASING
         USING DSA,R13              SAVE AREA / WORKING STORE
         USING DVTAB,R11            DEVICE TABLE POINTER
         USING GTFREC,R10           GTF RECORD POINTER
         ST    R1,PARMSAVE         SAVE PARM LIST PTR
         LA    R9,GETREC           SET STATIC AREA
         LA    R9,(STATIC-GETREC)(R9) "
         USING STATIC,R9           TELL ASM
         B     SETUP                GO TO SETUP
GETREC   DS    0H                   GET NEXT GTF RECORD
         BAL   R14,GET             GET GTF RECORD
         LR    R10,R1              COPY ADDR PTR
         CLC   GTLEN,=H'65'        MIN LENGTH HANDLED
         BL    BYPASS              TOO SHORT
         CLI   GTID,X'FF'          TRACE RECORD ID
         BNE   BYPASS              NO-SKIP
         CLI   GTFMT,0             FORMAT IDENTIFIER
         BNE   BYPASS              NO-BYPASS
         CLC   GTEVNT,=X'5100'     SIO REC
         BE    SIOREC              YES
         CLC   GTEVNT,=X'5200'     I/O W/ VALID UCB
         BE    IOREC               YES
         CLC   GTEVNT,=X'2100'     PCI I/O
         BE    IORECPCI            YES
         CLC   GTEVNT,=X'5201'     I/O W/O VALID UCB
         BE    IORECBAD            YES-BAD
         B     BYPASS              ALL ELSE FAILS TOO
IORECPCI DS    0H                  PCI
         AP    TOTPCI,=P'1'        BUMP
         B     GETREC              LOOP
IORECBAD DS    0H                  I/O W/O VALID UCB
         AP    TOTBAD,=P'1'        BUMP
         B     GETREC              LOOP
BYPASS   DS    0H                  BYPASSED RECORD(MANY REASONS)
         AP    TOTBYPAS,=P'1'      BUMP CTR
         B     GETREC              LOOP
         TITLE '              I / O  R E C O R D '
IOREC    DS    0H
         AP    TOTIO,=P'1'          BUMP TOT
         LH    R11,GTIDEV           GET DEV ADDR
         BAL   R14,UTGET            LOCATE DEVICE TABLE PTR
         B     GETREC               +0 RETURN = NOT FOUND
         OC    DVLTIME,DVLTIME      IS THERE A PREV SIO REC.
         BZ    IODEFR               NO - SEE IF ANY IO WAS DEFERED
         ICM   R0,15,GTTIME         GET IO TIME
         ICM   R1,15,GTTIME+4       GET IO TIME
         LM    R2,R3,DVLTIME       GET SIO TIME
         XC    DVLTIME,DVLTIME      SHOW NO SIO TIME
         XC    DVL0TIME,DVL0TIME    SHOW NO SIO TIME
         BAL   R14,UTTIMDIF        CALC TIME DIF IN MILLISEC*10
         C     R1,DVMAXIO           CHECK AGAINST MAX SO FAR
         BL    *+8                  NO - SKIP
         ST    R1,DVMAXIO           YES-SAVE NEW MAX
         LR    R0,R1               SAVE VALUE
         AL    R1,DVAVGIO           ADD IO TIME TO TOTAL
         ST    R1,DVAVGIO           STORE
         LH    R15,DVLJOBI         GET LAST JOB INDEX
         AL    R0,DVJTIOTM(R15)    ADD TO LAST JOBS TIME
         ST    R0,DVJTIOTM(R15)    UPDATE
*        CALC DEFERED I/O TIMES
IODEFR   DS    0H                  CALC HOW LONG LAST SIO.NE.ZERO
         BAL   R14,UTDEFR          CALC DEFER TIME
         B     GETREC              NEXT RECORD
         TITLE '               S I O  R E C O R D'
SIOREC   DS    0H                   PROCESS SIO RECORD
         MVC   STOPTM,GTTIME       SAVE TIME(LAST GTF RECORD@EOD)
         AP    TOTSIO,=P'1'         BUMP TOT
         XR    R11,R11
         ICM   R11,3,GTSDEV         GET ADDR
         BAL   R14,UTGET            GET DEVICE TABLE PTR
         B     GETREC               +0=NOT FOUND
         BAL   R14,UTDEFR          CALC DEFER TIME IF ANY
         BAL   R14,UTFNDJOB        LOCATE INDEX IN JOB TABLE
         IC    R1,GTSIOCC           GET SIO CC
         N     R1,=X'00000030'      MASK
         SRL   R1,2                 SHIFT R 2 TO GET SIOCC*4
         LA    R15,TOTSIO0(R1)     GET PACKED CTR
         AP    0(L'TOTSIO0,R15),=P'1' BUMP
         L     R15,DVSIO0(R1)       BUMP SIO CTR
         AH    R15,=H'1'            "
         ST    R15,DVSIO0(R1)       "
         CH    R1,=AL2(1*4)        SIO CC=1?
         BNE   SIO1END             NO
         LA    R0,(DVSIO1XE-DVSIO1XS)/(DVSIO1XL) # ENTRIES
         LA    R14,DVSIO1XS        START OF STATUS CODES
SIO1LOC  DS    0H                  FIND MATCH OR ADD NEW CODE
         CLC   GTSSTAT,DVSIO1XS-DVSIO1XS(R14)
         BE    SIO1UPD             YES-BUMP COUNTERS
         CLC   DVSIO1XS-DVSIO1XS(L'DVSIO1XS,R14),=H'0' ZERO
         BZ    SIO1UPD             END-OF-TABLE - ADD NEW ENTRY
         LA    R14,DVSIO1XL(R14)   TRY NEXT
         BCT   R0,SIO1LOC          LOOP
         B     SIO1END             NOMATCH AND TABLE FULL - * SKIP *
SIO1UPD  DS    0H                  ADD OR BUMP ENTRY
         MVC   DVSIO1XS-DVSIO1XS(L'DVSIO1XS,R14),GTSSTAT ADD/OVLY DATA
         ICM   R15,15,DVSIO1XC-DVSIO1XS(R14) BUMP COUNTER
         AH    R15,=H'1'
         STCM  R15,15,DVSIO1XC-DVSIO1XS(R14) BUMP COUNTER
SIO1END  DS    0H
         LR    R14,R1              GET SIO CC
         MH    R14,=AL2(JT#)       * ROW SIZE = SIO ROW XX (INDEX)
         AH    R14,DVCJOBI         ADD CURRENT JOB INDEX 0,4,8...
*                                   =SIO(SIOCC,JOB)
         L     R15,DVJTSIO0(R14)   BUMP SIO CC BY 1
         AH    R15,=H'1'           "
         ST    R15,DVJTSIO0(R14)
         LTR   R1,R1                SIO CC = 0
         BNZ   SIO1REC              NO - NEXT PHASE
         MVC   DVL0TIME,GTTIME     REMEMBER LAST SIO0 FOR CONCURRENCE
         ICM   R1,3,GTSSEEK+3       GET SEEK CYL
         CLI   PRTOPT,C'H'         HISTOGRAM OPTION?
         BNE   SIOMATRX            NO-CALC ADDR IN SEEK MATRIX
**       HISTOGRAM - JUST GO DOWN TO CYL ENTRY IN VECTOR
         SLL   R1,2                CYL# * 4 = OFFSET IN VECTOR
         L     R0,DVXREF(R1)       GET CURRENT SEEK COUNT
         AH    R0,=H'1'            BUMP
         ST    R0,DVXREF(R1)       UPDATE
         B     SIOSKPX             GO AROUND MATRIX CODE
SIOMATRX DS    0H
         LH    R15,DVDELTA          GET SLOT SIZE IN CYL
         BAL   R14,DIVIDE           CALC SLOT #
         SLL   R1,2                SLOT# * 4
         L     R15,DVLROW          LAST ROW ADDR IN SEEK ARRAY
         AR    R15,R1              + OFFSET = ENTRY
         L     R0,0(R15)           DT(FROM,TO)=DT(FROM,TO)+1
         AH    R0,=H'1'            "
         ST    R0,0(R15)           "
         MH    R1,DVSLOTS          CALC NEW FROM ROW ADDR
         LA    R1,DVXREF(R1)       "
         ST    R1,DVLROW           SAVE FOR NEXT SIO
SIOSKPX  DS    0H
         XR    R0,R0
         ICM   R0,3,DVLSEEK+3      LAST SEEK CYL
         SH    R0,GTSSEEK+3        CALC DIFFERENCE
         LPR   R0,R0               POSITIVE
         LR    R3,R0               SAVE FOR JOB ARRAY
         A     R0,DVTOTCYL         BUMP TOT CYL SEEKED
         ST    R0,DVTOTCYL         "
         LR    R0,R3               REFRESH
         LH    R1,DVCJOBI          GET CURR INDEX
         A     R0,DVJTSEEK(R1)     BUMP JOB'S CYL SEEKED
         ST    R0,DVJTSEEK(R1)     "
*        UPDATE JT TABLE
         CH    R3,SEEKINTF         CYL SEEKED ENOUGH ?
         BL    SIONOINT            NO - JOB NOT HELD UP
         LH    R1,DVLJOBI          GET LAST JOB #(CAUSED PROB)
         LH    R14,DVCJOBI         GET CURRENT JOB INDEX
         MH    R14,=AL2(JT#)       *L'=OFFSET TO ARRAY ROW
         LA    R14,DVJTXREF(R14)    + BASE ADDR = ROW ADDR
         L     R2,0(R14,R1)        JT(N,M)=JT(N,M)+1
         AH    R2,=H'1'            "
         ST    R2,0(R14,R1)        "
SIONOINT DS    0H                  UPDATE FILEDS
*        UPDATE HOLD INFO
         MVC   DVLJOBI,DVCJOBI     LAST JOB INDEX
         MVC   DVLSEEK,GTSSEEK     LAST SEEK
         MVC   DVLJOB,GTJOB        LAST JOB
         MVC   DVLTIME,GTTIME      LAST TIME
         B     GETREC              LOOP
*        SIO 1 AND 2 RECORDS
SIO1REC  DS    0H                  SEE IF IO HAD TO BE DEFERED
         MVC   DVLJOBI,DVCJOBI     UPDATE LAST JOB INDEX
         CH    R1,=H'3'            SIO=3 NOT OPERATIONAL
         BE    SIORET              YES-RETURN
         MVC   DVDEFRTM,GTTIME     SAVE TIME
*        I/O INTERRUPT WILL BE STOP OF DEFERED TIME
*        - OR SIO CC=0 WILL BE STOP OF DEFERED TIME
SIORET   DS    0H                  END OF SIO PROCESSING
         B     GETREC
         TITLE '             S E T U P'
SETUP    DS    0H
*        CALC NUMB OF ONLINE DASDS IN SYSTEM
         L     R4,16               CVT
         L     R4,CVTILK2(R4)      LOOKUP2
         LA    R0,1                ONE SPOT FOR DUMMY ENTRY
         XR    R6,R6
SETMXDA  DS    0H
         LA    R4,2(R4)            NEXT UCB(1ST UCB NOT DASD)
         ICM   R6,3,0(R4)          GET UCB ADDR
         BZ    SETMXDA             HOLE-LOOP
         CLC   =X'FFFF',0(R4)      END OF TABLE-SET MAX DASD
         BE    SETMXEND
         CLI   UCBDVCLS(R6),X'20'  DASD
         BNE   SETMXDA             NO-SKIP
         TM    UCBSTAT(R6),X'80'   ONLINE
         BNO   SETMXDA             NO-SKIP
*        NOW SEE IF THIS IS PRIMARY PATH
         L     R2,16
         L     R2,CVTILK2(R2)      CVT LOOKUP
         XR    R3,R3
SETMXDUP DS    0H
         LA    R2,2(R2)            NEXT UCB PTR
         ICM   R3,3,0(R2)          GET UCB ADDR
         BZ    SETMXDUP
         CLC   =X'FFFF',0(R2)      END
         BE    SETMXINC            YES-STRANGE??
         CR    R3,R6               SAME UCB
         BNE   SETMXDUP            NO-TRY AGAIN
         CR    R2,R4               SAME UCB PTR
         BNE   SETMXDA             NO-MUST HAVE HIT 1ST PATH ALREADY
SETMXINC DS    0H
         AH    R0,=H'1'            BUMP NUMB OF ONLINE DASDS
         B     SETMXDA             NEXT
SETMXEND DS    0H
         STH   R0,DVMAX            SET SYSTEM MAX DASD
         ZAP   PACKS(4),=P'0'      ZERO FIRST PACKED COUNTER
         MVC   PACKS+4(PACKE-PACKS-4),PACKS  ZERO REST (64 MAX)
         MVI   HDR1,C' '           BLANK HDR
         MVC   HDR1+1(L'HDR1-1),HDR1  "
         MVI   HDR1,C'1'           SKIP CHAN 1 ASA
         AIF (&NOXYTEX).NOX1
         MVI   DTVFLAG,GETDATE     CALCOMP DATE UTILITY
         CALL  XYUTDTTM,(DTV)      "
         MVC   HDRDATE,REPTFORM    DATE
         MVC   HDRTIME,DTVCHR      TIME
.NOX1    ANOP
         MVC   HDRTITLE,LOGO       MOVE HEADER
         LA    R1,HDR1             GET HDR
         BAL   R14,PUT             1ST WRITE CAUSES OPEN
         MVC   LINESIZE,PUTDCB+X'52' COPY LRECL
*        SET REPORT FORMAT
         MVI   PRTOPT,C'H'         DEFAULT (H=HISTOGRAM,M=MATRIX)
         L     R1,PARMSAVE         GET O/S PARM
         L     R1,0(R1)            GET JCL PARM
         CLC   =H'4',0(R1)         MIN LENGTH
         BH    SETPREND            NO-USE DEFAULT
         MVI   PRTOPT,C'M'         SET MATRIX OPTION
         CLC   =C'MATR',2(R1)      MATRIX
         BE    SETPREND            YES-LEAVE 'M' IN
         MVI   PRTOPT,C'H'         HISTOGRAM
         CLC   =C'HIST',2(R1)
*        BE    SETPREND            YES-LEAVE 'H' (ENABLE-MORE OPTIONS)
SETPREND DS    0H
         LH    R0,LINESIZE         GET LINE SIZE
         AH    R0,=H'10'           + 10
         GETMAIN R,LV=(0)          GET PRINT LINE
         ST    R1,@PL              SAVE ADDR