         MACRO
&NAME    DCBEXITB
         SPACE 2
***********************************************************************
*        DCBEXITB MACRO                                               *
***********************************************************************
         SPACE 2
&NAME    DS    0F
         DC    X'85'                    SET EXIT INDICATOR
         DC    AL3(*+3)                 ADDRESS
         CLC   62(2,1),82(1)            BLOCKSIZE/LRECL
         BHR   14                       GREATER - EXIT
         MVC   62(2,1),82(1)            SET BLKSIZE=LRECL
         NI    36(1),X'E7'              TURN OFF BLOCKED/STANDARD
         BR    14                       EXIT
         SPACE 2
         MEND
