         MACRO
&NAME    GTDATE &ADDR,&SLASH=YES
         LCLB  &SL
         SPACE 2
***********************************************************************
*        GTDATE MACRO - OBTAIN DATE AS MMDDYY OR MM/DD/YY             *
***********************************************************************
         SPACE 2
         AIF   ('&SLASH' NE 'YES').NSLA
&SL      SETB  1
         AGO   .NSLB
.NSLA    AIF   ('&SLASH' EQ 'NO').NSLB
         MNOTE 8,'INVALID SLASH PARAM, NO ASSUMED'
.NSLB    ANOP
&NAME    LA    0,7                      SET UP FOR BOUNDARY CALC
         LA    14,12+7(13)              SET WORK ADDRESS IN SAVE AREA
         OR    14,0
         XR    14,0                     SET TO DOUBLEWORD
         L     1,16                     GET CVT
         MVC   4(4,14),56(1)            MOVE DATE TO WORK
         MVC   29(1,14),5(14)           SAVE
         MVC   8(12,14),GTT&SYSNDX      SET DATE TABLE
         TM    29(14),X'01'             ODD
         BO    GTC&SYSNDX               NOT LEAP
         TM    29(14),X'12'             CHECK DIV BY 4
         BM    GTC&SYSNDX               NOT LEAP
         MVI   9(14),29                 SET LEAP DAYS
GTC&SYSNDX SR  15,15                    SET WORK REG
         SR    1,1
         XC    0(6,14),0(14)            CLEAR FOR CONVERT
         CVB   0,0(14)                  GET DAYS
GTL&SYSNDX IC  15,8(1,14)               GET FACTOR
         LA    1,1(0,1)                 SET MONTH AND NEW FACTOR
         SR    0,15                     REDUCE DAYS
         BP    GTL&SYSNDX               LOOP TO EXHAUST DAYS
         AR    0,15                     RESTORE DAYS
         MH    0,=H'10'                 ADJUST FOR EDITS
         MH    1,=H'1000'               ADJUST MONTH
         AR    1,0                      SET MMDD0
         CVD   1,0(14)                  SET 00MMDD0C IN WORD
         UNPK  20(3,14),5(2,14)         SET MM
         UNPK  22+&SL.(3,14),6(2,14)    SET DD
         UNPK  24+&SL*2(3,14),29(2,14)  SET YY
         AIF   (NOT &SL).CONT
         MVI   22(14),C'/'              SET SLASHES
         MVI   25(14),C'/'
.CONT    AIF   ('&ADDR'(1,1) NE '(').NORG
         MVC   0(6+&SL*2,&ADDR(1)),20(14)
         AGO   .CONT1
.NORG    MVC   &ADDR.(6+&SL*2),20(14)
.CONT1   B     GTX&SYSNDX
         SPACE
*---------------------------------------------------------------------*
*        DATE TABLE INDEX SET                                         *
*---------------------------------------------------------------------*
         SPACE
GTT&SYSNDX DC  AL1(31,28,31,30,31,30,31,31,30,31,30,31)
GTX&SYSNDX DS  0H
         SPACE 2
         MEND
