         MACRO
&NAME    INIT  &RG=1,&PC=,&REQ=,&PATCH=,&SAVE=,&PARM=,&PGM=,&ENTRY
         COPY  ACSCGBLS
         LCLA  &A1,&A2,&A3,&A4
         SPACE 2
***********************************************************************
*        INIT MACRO - PROGRAM ENTRY AND HOUSEKEEPING                  *
***********************************************************************
         SPACE 2
         AIF   (T'&REQ EQ 'O').REGS
         AIF   ('&REQ' EQ 'NO').EREGS
         MNOTE 0,'INVALID ''REQ'' PARAM, NO ASSUMED'
         AGO   .EREGS
.REGS    ANOP
.* ISSUE EQUR MACRO FOR REGISTER EQUATED SYMBOLS
         EQUR
.EREGS   ANOP
.* CHECK PC AND SET APPROPRIATE SWITCH
         AIF   (T'&PC EQ 'O').NOPCX
         AIF   ('&PC' NE 'ARM' AND '&PC' NE 'YES').NOPC
&ACSC1(1) SETB 1
         AGO   .NOPCX
.NOPC    ANOP
         MNOTE 0,'INVALID PC, IGNORED'
.NOPCX   AIF   (T'&ENTRY EQ 'O').NOENTRY
         AIF   ('&ENTRY' EQ 'ENTRY').ENTOK
         MNOTE 4,'INVALID POSITIONAL OPERAND, NO ENTRY GENERATED'
         AGO   .NOENTRY
.ENTOK   ANOP
         ENTRY &NAME
.NOENTRY ANOP
&NAME    DS    0H
*---------------------------------------------------------------------*
*        ISSUE SAVE MACRO                                             *
*---------------------------------------------------------------------*
         SAVE  (14,12),,&SYSECT-&SYSDATE-&SYSTIME
         SPACE 2
*---------------------------------------------------------------------*
*        SAVE PARM, GET SAVE AREA, SET UP BASE REGS                   *
*---------------------------------------------------------------------*
         SPACE 2
         LR    2,1                      SAVE PASSED PARAMS
.NPARM1  AIF   (T'&SAVE EQ 'O').NOSAVE
         USING &NAME,15                 SET UP BASE
&ACSC3(1) SETC '&SAVE'                  SAVE LENGTH
         LA    0,&SAVE+72+&ACSC1(1)*4   SET GETMAIN LENGTH
* ISSUE GETMAIN FOR SAVE AREA AND WORK SPACE
         GETMAIN R,LV=(0)
.CHAIN   ST    13,4(1)                  SAVE BACKWARD POINTER
         ST    1,8(13)                  SAVE FORWARD POINTER
         LR    13,1                     SET SAVE AREA
         DROP  15
         AGO   .ADDRS
.NOSAVE  USING &NAME,15                 SET UP BASE
         CNOP  0,4                      SET ON BOUNDRY
         BAL   1,*+76+&ACSC1(1)*4       SET REG SAVE PLUS WORK AREA
         USING *,13
         DS    18F                      SAVE AREA
         AIF   (NOT &ACSC1(1)).CHAIN
         DS    F                        SPIE SAVE AREA
         AGO   .CHAIN
.ADDRS   AIF   (T'&SAVE EQ 'O').NSAV1
         AIF   (T'&RG NE 'O').OKBASE
         MNOTE 4,'YOU REQUESTED NO BASE REGISTERS, WILL GIVE YOU ONE'
&A1      SETA  1
         AGO   .NOBASE
.OKBASE  ANOP
&A1      SETA  &RG
.NOBASE  ANOP
&A2      SETA  11
&A3      SETA  1
&A4      SETA  0
         BALR  12,0                     SET BASE REG
         USING *,12
.ADRLP   ANOP
&A1      SETA  &A1-1
         AIF   (&A1 EQ 0).EADDR
         LA    &A2,4095(&A2+1)          SET MORE BASES
         USING *+4095*&A3-&A4-4*&A3-&ACSC1(1)*4,&A2
&A3      SETA  &A3+1
&A2      SETA  &A2-1
         AGO   .ADRLP
.NSAV1   ANOP
         AIF   (T'&RG EQ 'O').OKBASE1
         AIF   (T'&RG NE 'O').OKBASE1
         MNOTE 4,'YOU REQUESTED NO BASE REGISTERS, WILL GIVE YOU ONE'
&A1      SETA  1
         AGO   .NOBASE1
.OKBASE1 ANOP
&A1      SETA  &RG
.NOBASE1 ANOP
&A2      SETA  12
&A3      SETA  1
&A4      SETA  82
         AGO   .ADRLP
.EADDR   AIF   (T'&PARM EQ 'O').PATCHS
         SPACE 2
*---------------------------------------------------------------------*
*        SAVE PARM ADDRESS OR INFO                                    *
*---------------------------------------------------------------------*
         SPACE 2
         AIF   ('&PARM(2)' NE 'ADDR').NPARM2
         ST    2,&PARM(1)               SAVE PARM ADDRESS POINTER
         AGO   .PATCHS
.NPARM2  AIF   ('&PARM(2)' NE 'DATA').NPARM3
         L     1,0(0,2)                 GET PARM ADDRESS
         LH    3,0(0,1)                 GET LENGTH
         LA    3,1(0,3)                 SET FOR MVC
         EX    3,*+8                    DO THE MOVE
         B     *+10                     GO AROUND
         MVC   &PARM(1).(0),0(1)        EXECUTED MOVE
         AGO   .PATCHS
.NPARM3  MNOTE 4,'INVALID ''PARM'' PARAM, NO INFO SAVED'
.PATCHS  AIF   ('&PATCH' EQ 'NO').LEAVE
         AIF   ('&PATCH' NE 'YES').LEAVE
         SPACE 2
*---------------------------------------------------------------------*
*        PATCH AREA                                                   *
*---------------------------------------------------------------------*
         B     *+104                    GO AROUND
         NOP   *                        SET UP ADDRESS INDICATOR
         DC    96X'00'                  CLEAR PATCH AREA
.LEAVE   AIF   ('&PC' NE 'YES').NPCYES
         SPACE 2
*---------------------------------------------------------------------*
*        ISSUE SPIEPC MACRO                                           *
*---------------------------------------------------------------------*
         SPACE 2
         SPIEPC
.NPCYES ANOP
         SPACE 2
         AIF   (T'&PGM EQ 'O').OUT
*        ISSUE WTO FOR PROGRAM NAME
         SPACE
         WTO   '&PGM EXECUTING',ROUTCDE=2
         SPACE
.OUT     ANOP
         LR 1,2                         RESTORE PARM INFO
         SPACE 2
         MEND
