         MACRO
&NAME    IOBGEN &DCB=,&CCWS=,&ECB=,&FLAGS=
         LCLB  &FLG(3)                  FLAG1 BIT ID
         LCLA  &FCNT,&LCNT
         AIF   (T'&FLAGS EQ 'O').NOFLG
&FCNT    SETA  N'&FLAGS
.LOOP1   ANOP
&LCNT    SETA  1
.LOOP2   AIF   ('&FLAGS(&FCNT)' EQ 'DCCCUN'(&LCNT,2)).SET
.UPLP    ANOP
&LCNT    SETA  &LCNT+2
         AIF   (&LCNT LT 6).LOOP2
&FCNT    SETA  &FCNT-1
         AIF   (&FCNT GT 0).LOOP1
         AGO   .NOFLG
.SET     ANOP
&FLG((&LCNT+1)/2) SETB 1
         AGO   .UPLP
.NOFLG   ANOP
&NAME    DS    0F                       ALIGN
         DC    B'&FLG(1)&FLG(2).0000&FLG(3).0'  FLAG BYTE 1
         DC    AL3(0)                   FILL
         DC    A(&ECB)                  ECB ADDRESS
         DC    2A(0)
         DC    A(&CCWS)                 CCW STRING ADDRESS
         DC    A(&DCB)                  DCB ADDRESS
         DC    2A(0)
         DS    CL8                      MBBCCHHR AREA FOR DA
         MEND
