         MACRO
&NAME    LEAVE &SAVE=,&RC=0,&RECREG=
         COPY  ACSCGBLS
         SPACE 2
***********************************************************************
*        LEAVE MACRO                                                  *
***********************************************************************
         SPACE 2
&NAME    DS    0H
         AIF   (NOT &ACSC1(2)).NOSP1
*---------------------------------------------------------------------*
*        RESET SPIE ROUTINE                                           *
*---------------------------------------------------------------------*
         SPACE 2
         L     1,&ACSC3(1)+72(13)       GET SAVED ADDRESS
* ISSUE SPIE MACRO
         SPIE  MF=(E,(1))
         SPACE 2
.NOSP1   ANOP
*---------------------------------------------------------------------*
*        RESET SAVE AREA AND EXIT                                     *
*---------------------------------------------------------------------*
         SPACE 2
         AIF   (T'&SAVE EQ 'O').NSAV
         LR    1,13                     SET FOR RELEASE
.NSAV    L     13,4(13)                 UNCHAIN SAVE AREA
         AIF   (T'&SAVE EQ 'O').NSAV1
* ISSUE FREEMAIN MACRO
         LA    0,&SAVE+72+&ACSC1(1)*4   GET LENGTH OF AREA
         FREEMAIN R,LV=(0),A=(1)
.NSAV1   AIF   (T'&RECREG EQ 'O').RET
         AIF   ('&RECREG'(1,1) EQ '(').RECOK
         MNOTE 4,'INVALID RECREG, NOT REGISTER NOTATION, IGNORED'
         AGO   .RET
.RECOK   ST    &RECREG(1),24(13)        SAVE RECREG IN R1 AREA
.RET     RETURN (14,12),T,RC=&RC
         SPACE 2
         MEND
