         MACRO
&NAME    PRNT  &OVF=,&CNTR=,&RESET=,&LINK=,&PAGE=,&HEADR=,             X
               &HLIST=,&EXIT=,&ID=,&DCB=,&CLEAR=NO
         LCLA  &LA3,&LA4,&LA5
         LCLB  &B1,&EBR
         LCLC  &LC1,&LC2
         AIF   (T'&NAME NE 'O' AND K'&NAME LT 8).NAMOK
         MNOTE 9,'MISSING OR LONG NAME FIELD, MACRO IGNORED.'
         AGO   .ENDIT
.NAMOK   ANOP
         SPACE
***********************************************************************
*        PRINT SUBROUTINE                                             *
         CNOP  0,4
&NAME    EQU   *
&LA3     SETA  N'&HEADR
&LA4     SETA  1
         AIF   (T'&CNTR  NE 'O').NO1
         MNOTE 9,'CNTR= OMITTED, MACRO NOT ASSEMBLED'
         AGO   .ENDIT
.NO1     AIF   (T'&LINK  NE 'O').NO2
         MNOTE 9,'LINK= OMITTED, MACRO NOT ASSEMBLED'
         AGO   .ENDIT
.NO2     AIF   (T'&RESET NE 'O').NO2X
         MNOTE *,'RESET= OMITTED, DEFAULT=1'
&LC1     SETC  '1'
         AGO   .NO3
.NO2X    ANOP
&LC1     SETC  '&RESET'
.NO3     AIF   (T'&OVF NE 'O').NO3X
         MNOTE *,'OVF= OMITTED, DEFAULT=56'
&LC2     SETC  '56'
         AGO   .NO4
.NO3X    ANOP
&LC2     SETC  '&OVF'
.NO4     AIF   (T'&HEADR EQ 'O' AND T'&HLIST EQ 'O').NO4A
         CP    &CNTR,=P'&LC2'           CHECK FOR OVERFLOW
         AGO   .NO4B
.NO4A    ANOP
         MVC   PR&SYSNDX+1(1),CTRL&ID   SAVE CONTROL CHARACTER
         CP    &CNTR,=P'&LC2'          CHECK FOR OVERFLOW
.NO4B    BH    PH&SYSNDX               YES, GO TO OVERFLOW ROUTINE
&NAME.A  LA    0,CTRL&ID                POINT REG 0 TO PRINT LINE
PI&SYSNDX EQU  *
         AIF   (T'&DCB EQ 'O').DFLTDCB
         AIF   (N'&DCB GT 1).DCBFULL
         AIF   ('&DCB'(1,1) EQ '(').DCBREG
         LA    1,&DCB                   LOAD DCB ADDRESS INTO REG 1
         ST    1,&NAME.D                SAVE ADDRESS IN FULLWORD
         AGO   .NEXT1
.DCBFULL ANOP
         MVC   &NAME.D,&DCB(1)          MOVE DCB ADDRESS TO SAVE AREA
         AGO   .NEXT1
.DCBREG  ANOP
         ST    &DCB,&NAME.D             SAVE ADDRESS IN FULL WORD
         AGO   .NEXT1
.DFLTDCB ANOP
         LA    1,IJSYSLS                LOAD DCB ADDRESS
         ST    1,&NAME.D                SAVE ADDRESS IN FULLWORD
.NEXT1   ANOP
         L     1,&NAME.D                POINT REG 1 TO DCB
.ERRET   ANOP
         PUT   (1),(0)
.ARND1   ANOP
         AIF   (T'&HEADR NE 'O' OR T'&HLIST NE 'O').NO4C
PR&SYSNDX MVI  CTRL&ID,X'00'            RESTORE CONTROL CHARACTER
.NO4C    ANOP
         AIF   ('&CLEAR' NE 'YES').NO4D
&NAME.C  NOPR  &LINK                    CLEAR BRANCH SWITCH
         MVI   CTRL&ID,C' '             CLEAR OUTPUT PRINT LINE
         MVC   P0&ID,CTRL&ID
.NO4D    ANOP
         BR    &LINK                    RETURN VIA LINK REGISTER
PH&SYSNDX ZAP  &CNTR,=P'&LC1'          RESET LINE COUNTER
         AIF   ('&CLEAR' NE 'YES').NO4E
         AIF   (T'&HEADR EQ 'O' AND T'&HLIST EQ 'O').NO4E
         OI    &NAME.C+1,X'F0'          SET CLEAR BRANCH SWITCH
.NO4E    ANOP
         AIF   (T'&HEADR NE 'O' OR T'&HLIST NE 'O').NO5
         MVI   CTRL&ID,C'1'             SKIP TO CHANNEL ONE
         B     &NAME.A
         AGO   .NO10
.NO5     ST    &LINK,PS&SYSNDX          STORE RETURN ADDRESS
         AIF   (T'&EXIT EQ 'O').NOEX1
         BAL   &LINK,PXT&SYSNDX         BRANCH TO EXIT ROUTINE
.NOEX1   ANOP
.NO50    AIF   (T'&PAGE EQ 'O').NO5A
         AIF   (N'&PAGE NE 2).NO8
         AIF   (K'&PAGE(2) GT 1).NO8
&B1      SETB  1
&LA5     SETA  1
.X1      AIF   ('&PAGE(2)' EQ '13579'(&LA5,1)).X2
         AIF   (&LA5 EQ 5).X11
&LA5     SETA  &LA5+1
         AGO   .X1
.X11     ANOP
         AP    &NAME.P,=P'10'
         AGO   .X3
.X2      ANOP
         AP    &NAME.P,=P'1'
.X3      ANOP
         MVC   &PAGE(1)(&PAGE(2)+1),MS&SYSNDX
         ED    &PAGE(1)(&PAGE(2)+1),&NAME.P
.NO5A    AIF   (T'&HEADR EQ 'O').NO5B
         LA    0,&HEADR(&LA4)
.EBHR    ANOP
         BAL   &LINK,PI&SYSNDX          BRANCH TO PRINT
         AIF   (&LA3 EQ &LA4).NO5B
&LA4     SETA  &LA4+1
         AGO   .NO5A
.NO5B    AIF   (T'&HLIST EQ 'O').NO6
         ST    2,PS&SYSNDX+4
         LA    2,&HLIST
PL&SYSNDX CLI  0(2),X'FF'
         BE    PX&SYSNDX
         L     0,0(2)
.EBLR    ANOP
         BAL   &LINK,PI&SYSNDX
         AP    &CNTR,=P'1'              INCREASE LINE COUNTER
         LA    2,4(2)
         B     PL&SYSNDX
PX&SYSNDX L    2,PS&SYSNDX+4
.NO6     L     &LINK,PS&SYSNDX          LOAD RETURN ADDRESS
         AIF   ('&CLEAR' NE 'YES').NO7
         NI    &NAME.C+1,X'0F'          RESET CLEAR BRANCH SWITCH
.NO7     B     &NAME.A                  BRANCH AND PRINT DETAIL
PS&SYSNDX DS   F
         AIF   (T'&HLIST EQ 'O').NO7A
         DS    F
.NO7A    AIF   (NOT &B1).NO10
&LA5     SETA  &PAGE(2)/2+1
&NAME.P  DC    PL&LA5'0'
&LA5     SETA  &PAGE(2)
MS&SYSNDX DC   C' '
         DC    &LA5.X'20'
         AGO   .NO10
.NO8     ANOP
         MNOTE *,'INVALID PAGE PARAMS, IGNORED'
         AGO   .NO5A
.NO10    ANOP
&NAME.D  DC    F'0'
PXT&SYSNDX DS  0H
.ENDIT   ANOP
*                                                                     *
***********************************************************************
         SPACE
         MEND
