         MACRO
&NAME    URGEN &TYPE,&EOD=
         SPACE 2
***********************************************************************
*        URGEN MACRO                                                  *
***********************************************************************
         SPACE 2
         AIF   ('&TYPE' EQ 'READ').RDR
         AIF   ('&TYPE' EQ 'PUNCH').PCHA
         AIF   ('&TYPE' EQ 'PRINT').PRT
         AIF   ('&TYPE' EQ 'PUNCH80').PCH80
         AIF   ('&TYPE' EQ 'PUNCH81').PCH
         MNOTE 8,'INVALID GEN TYPE, MACRO TERMINATED'
         MEXIT
.PRT     ANOP
&NAME    DCB   DDNAME=&NAME,MACRF=PM,DSORG=PS,                         X
               LRECL=133,RECFM=FBA,EXLST=URGN&SYSNDX
         SPACE 2
URGN&SYSNDX DCBEXITB
         SPACE 2
         MEXIT
.RDR     ANOP
         AIF   (T'&EOD NE 'O').RDRA
         MNOTE 8,'MISSING EOD PARAMETER, MACRO TERMINATED'
         MEXIT
.RDRA    ANOP
&NAME    DCB   DSORG=PS,MACRF=GM,DDNAME=&NAME,EODAD=&EOD
         SPACE 2
         MEXIT
.PCH80   ANOP
&NAME    DCB   DDNAME=&NAME,DSORG=PS,MACRF=PM,                         X
               LRECL=80,RECFM=FB,EXLST=URGN&SYSNDX
         SPACE 2
URGN&SYSNDX DCBEXITB
         SPACE 2
         MEXIT
.PCHA    MNOTE 0,'PUNCH 81 BYTE WITH ASA ASSUMED.'
.PCH     ANOP
&NAME    DCB   DDNAME=&NAME,DSORG=PS,MACRF=PM,                         X
               LRECL=81,RECFM=FBA,EXLST=URGN&SYSNDX
         SPACE 2
URGN&SYSNDX DCBEXITB
         SPACE 2
         MEND
