         MACRO
&NAME    ABORT
&NAME    SAVE  (2,12),T      SAVE REGISTERS
         LINK  EP=BELL
         MEND
