         MACRO
&NAME    ADDB  &T,&F,&REG=R1
         LCLC  &TYPE
         AIF   (T'&T EQ 'F').FTYPE
&TYPE    SETC  'H'
.FTYPE   ANOP
&NAME    L&TYPE &REG,&T
         A&TYPE &REG,&F
         ST&TYPE &REG,&T
         MEND
