         MACRO
&NAME    AVGF  &TYP,&T,&F,&ANS,&MULT=
         LCLC  &TYPE
&TYPE    SETC  'E'
         AIF   ('&TYP' EQ 'S').FTYPE
&TYPE    SETC  'D'
.FTYPE   ANOP
&NAME    L&TYPE FR0,&T         LOAD DIVIDEND
         D&TYPE FR0,&F         DIVIDE
         AIF    (T'&MULT EQ 'O').NOM1
         MD     FR0,&MULT      MULTIPLY BY FACTOR
.NOM1    ANOP
         C&TYPE FR0,&ANS       COMPARE PIOR RESULT
         BL     *+8            SKIP STORE IF PIOR IS HIGHER
         ST&TYPE FR0,&ANS
         MEND
