         MACRO
&NFS     COLVAR  &VAR,&LEN,&NAME
.********************************************************************
.* THIS MACRO IS USED WITH THE COLUP PROGRAMS TO GENERATE TWO LISTS *
.* OF CONSTANTS. ONE LIST IS USED AS LAYOUT OF THE VSAM RECORDS     *
.* (THIS IS VSAMAREA IN COLSAMP). THE 2ND LIST IS USED TO INIT'LIZE *
.* THE ISPF VARIABLE NAMES FOR TRANSFER OF DATA BETWEEN THE PANELS  *
.* AND THE PROGRAM (THIS IS THE VARLIST CSECT).                     *
.********************************************************************
         GBLA  &VEOFF
         LCLC  &COMMENT
&COMMENT SETC  '                 OFFSET = &VEOFF'
&NAME    CSECT
P&VAR    DC    CL(&LEN)' '&COMMENT
&VEOFF   SETA  &VEOFF+&LEN
VARLIST  CSECT
&NFS     DC    F'&LEN',A(P&VAR),CL10'(&VAR)',CL2' '
         MEND
