         MACRO
&NAME    COMP  &TYP,&T,&F,&H
         LCLC  &TYPE
&TYPE    SETC  'H'
         AIF   ('&TYP' EQ 'H').FTYPE
&TYPE    SETC  ' '
.FTYPE   ANOP
&NAME    LA     R0,1           INIT R0
         LH     R1,&T          LOAD 1ST ARGUMENT
         C&TYPE R1,&F          COMPARE WITH SECOND
         B&H    *+6            SKIP IF RESULT IS EXPECTED
         SR     R0,R0
         LTR    R0,R0
         MEND
