         MACRO
&NAME    CPYRIGHT ,
         LCLC  &YEAR,&LBL
&LBL     SETC  'CPYR'.'&SYSNDX'            SET UNIQUE LABEL
&YEAR    SETC  '19'.'&SYSDATE'(K'&SYSDATE-1,K'&SYSDATE)
         AIF   (T'&NAME EQ 'O').GEN
&LBL     SETC  '&NAME'
.GEN     ANOP
         PUSH  PRINT
         PRINT ON,GEN,NODATA
***********************************************************************
***********************************************************************
*
&LBL     DC    C'&SYSECT --> ASSEMBLED ON &SYSDATE AT &SYSTIME  '
         DC    C'COPYRIGHT REVOCATION &YEAR - SALE PROHIBITED   '
         DC    C'REPRODUCTION AND USE ENCOURAGED                '
         DC    C'LOS ANGELES MVS USERS GROUP - BURBANK, CALIF.  '
*
***********************************************************************
***********************************************************************
         SPACE 3
         POP  PRINT
         MEND
