         MACRO
&NAME    DISABLE
&NAME    SSM   *+1
         MEND
