         MACRO
&NAME    DSD
.*  SYSTEM DATA SETS
IHADS    DSECT
DSBEG    DS    0F
DSUCB    DS    H                   UCB ADDR.
DSID     DS    X                   D.S. IDENT.
DSMAXQ   DS    X                   MAX RQE Q.
DSDCB    DS    F                   DCB ADDR.
DSDTR    DS    F                   DATA TRANF        **
DSSEEK   DS    F                   SEEK TO D.S.      **
DSWTDS   DS    F                   RQE WAIT FOR D.S. **
DSWTUN   DS    F                   WAIT FOR UNIT        **
DSWTPT   DS    F                   WAIT FOR PATH        **
DSQSZE   DS    F                   RQE Q SIZE           **
DSEXCP   DS    F                   EXCP
DSEND    DS    0F
         MEND
