         MACRO
&NAME    ENABLE
&NAME    SSM   *+1
         ORG   *-3
         DC    X'FF'
         ORG
         MEND
