         MACRO
&NAME    ENADISA
&NAME    ENABLE
         DISABLE
         MEND
