         MACRO  ,
&NAME    EQUATE ,
         LCLC  &SYMBOL
         GBLA  &SYSTEM
&NAME    EQU   &SYSLIST(&SYSTEM)  SYSTEM=&SYSTEM
         MEND
