         MACRO
&NAME    FREEPUL &PAR,&DUMMY=
.**   FREEPOOL WHEN IN SUPV STATE
         AIF   ('&PAR' EQ '').E1
&NAME    IHBINNRA &PAR
         L     R15,20(R1,R0)       LOAD BUFCB ADDRESS
         OI    23(R1),1            INDICATE NO BUFCB ADDR
         LH    R14,4(R15,R0)       COMPUTE SIZE OF AREA
         MH    R14,6(R15,R0)       TO BE FREED
         TM    32(R1),1            TEST BUFALN
         BO    *+12                BRANCH IF BUFALN=F
         LA    R0,8(R14,R0)        ADD SIZE OF BUFCB
         B     *+8                 AND BRANCH AROUND
         LA    R0,16(R14,R0)       ADD SIZE OF BUFCB+PAD
         LA    R1,0(R15,R0)        LOAD AREA ADDRESS
         O     0,=X'FA000000'      SUBP 250 = SUBP0 *
         SVC   10                  ISSUE FREEMAIN SVC
         MEXIT
.E1      IHBERMAC 01
         MEND
