         MACRO
&NAME    IDMDSORG
***********************************************************************
*        DATASET ORGANIZATION TABLE                                   *
***********************************************************************
         SPACE 4
         DS    0F
&NAME    DS    0CL6                    DEFINE LENGTH OF ANY ENTRY
         DC    X'0200',CL4' PO '
         DC    X'4000',CL4' PS '
         DC    X'0008',CL4' VS '
         DC    X'2000',CL4' DA '
         DC    X'8000',CL4' IS '
         DC    X'0000',CL4'  ? '
         DC    X'0300',CL4' POU'
         DC    X'4100',CL4' PSU'
         DC    X'2100',CL4' DAU'
         DC    X'8100',CL4' ISU'
         DC    X'FFFF',CL4'  ? '       END OF DSORG TABLE
         MEND
