         MACRO
&NAME    IDMDEVTB
***********************************************************************
*        DEVICE TABLE                                                 *
***********************************************************************
         SPACE 4
         DS    0F
&NAME    DS    0CL15                DEFINE LENGTH OF ANY ENTRY
         DC    X'2008'
         DC    X'0014'
         DC    CL11'2314 DISK'
         DC    X'2002'
         DC    X'00C8'
         DC    CL11'2301 DRUM'
         DC    X'2003'
         DC    X'000A'
         DC    CL11'2303 DRUM'
         DC    X'2001'
         DC    X'000A'
         DC    CL11'2311 DISK'
         DC    X'2004'
         DC    X'002E'
         DC    CL11'2302 FILE'
         DC    X'2005'
         DC    X'0514'
         DC    CL11'2321 CELL'
         DC    X'2006'
         DC    X'0008'
         DC    CL11'2305-1 DRUM'
         DC    X'2007'
         DC    X'0008'
         DC    CL11'2305-2 DRUM'
         DC    X'2009'
         DC    X'0013'
         DC    CL11'3330 DISK'
         DC    X'200D'
         DC    X'0013'
         DC    CL11'3330-1 DISK'
         DC    X'200B'
         DC    X'001E'
         DC    CL11'3350 DISK'
         DC    X'200C'                                      *HMD 09/82*
         DC    X'000C'                                      *HMD 09/82*
         DC    CL11'3375 DISK'                              *HMD 09/82*
         DC    X'200E'                                      *HMD 09/82*
         DC    X'000F'                                      *HMD 09/82*
         DC    CL11'3380 DISK'                              *HMD 09/82*
         DC    X'0000'                 END OF DEVICE TABLE
         DC    X'0000'                 END OF DEVICE TABLE
         DC    CL11' UNKNOWN '
         MEND
