         MACRO
&NAME    IDMEXTNT
         SPACE
***********************************************************************
*        DATASET EXTENTS BLOCK - TABLE OF RELATIVE ADDRESSES          *
***********************************************************************
         SPACE
         DS    0F
&NAME    DS    0CL4                    DEFINE LENGTH OF ANY ENTRY
         DC    A(DS1EXT1-IECSDSL1)
         DC    A(DS1EXT2-IECSDSL1)
         DC    A(DS1EXT3-IECSDSL1)
         DC    A(DS3EXTNT+0-IECSDSL1)
         DC    A(DS3EXTNT+10-IECSDSL1)
         DC    A(DS3EXTNT+20-IECSDSL1)
         DC    A(DS3EXTNT+30-IECSDSL1)
         DC    A(DS3ADEXT+0-IECSDSL1)
         DC    A(DS3ADEXT+10-IECSDSL1)
         DC    A(DS3ADEXT+20-IECSDSL1)
         DC    A(DS3ADEXT+30-IECSDSL1)
         DC    A(DS3ADEXT+40-IECSDSL1)
         DC    A(DS3ADEXT+50-IECSDSL1)
         DC    A(DS3ADEXT+60-IECSDSL1)
         DC    A(DS3ADEXT+70-IECSDSL1)
         DC    A(DS3ADEXT+80-IECSDSL1)
         MEND
