         MACRO
&NAME    IDMYEART  &LEAPYR=N
         SPACE 4
***********************************************************************
*        YEAR/MONTHS/DAYS TABLE                                       *
***********************************************************************
         DS    0F
&NAME    DS    0CL8                    DEFINE LENGTH OF ANY ENTRY
         DC    H'31',CL2'01',CL4'JAN '
         AIF   ('&LEAPYR' NE 'Y').REGYEAR
         DC    H'29',CL2'02',CL4'FEB '
         AGO   .FEBOK
.REGYEAR ANOP
         DC    H'28',CL2'02',CL4'FEB '
.FEBOK   ANOP
         DC    H'31',CL2'03',CL4'MAR '
         DC    H'30',CL2'04',CL4'APR '
         DC    H'31',CL2'05',CL4'MAY '
         DC    H'30',CL2'06',CL4'JUN '
         DC    H'31',CL2'07',CL4'JUL '
         DC    H'31',CL2'08',CL4'AUG '
         DC    H'30',CL2'09',CL4'SEP '
         DC    H'31',CL2'10',CL4'OCT '
         DC    H'30',CL2'11',CL4'NOV '
         DC    H'31',CL2'12',CL4'DEC '
         DC    X'7FFF',CL2'? ',CL4' ?'   END OF TABLE
         MEND
