         MACRO
&NAME    IOERR
&NAME    STM   14,12,12(13) * SAVE REGISTERS
         STM   0,1,S&SYSNDX * SAVE DATA CHECK PARAMETERS
         LINK  EP=DATACK,PARAM=S&SYSNDX
S&SYSNDX DS    2F
         MEND
