         MACRO
&NAME    NODAD
.*  NON D.A. LIST FORMAT
IHANODA  DSECT
NODABEG  DS    0F
NODAUCB  DS    H
NODADADD DS    H
NODACHPT DS    H                   MASK FOR CHAN. PATHS
         DS    H                   IDLE
NODADTR  DS    F
NODAMAXQ EQU   NODADTR
NODABUSY DS    F
NODAWTUN DS    F
NODAWTPT DS    F
NODANRDY DS    F
NODAALLO DS    F
NODACUBS DS    F
NODAQSZE DS    F
NODAEXCP DS    F
NODAEND  DS    0F
         MEND
