         MACRO
&NAME    PGM   &BASE=R12,&SAVE=$$SAVE,&START=$$START,&EOJ=$$EOJ,&RC=16
&NAME    CSECT
         B     14(0,R15)           BRANCH AROUND PROGRAM ID.
         DC    AL1(8)              CSECT NAME LENGTH.
         DC    CL8'&NAME'          CSECT IDENTIFIER.
         DC    X'FF'               FILLER.
         STM   R14,R12,12(R13)     STORE THE REGISTERS.
         BALR  &BASE,0             ESTABLISH ADDRESSABILITY.
         USING *,&BASE             TELL ASSEMBLER ABOUT BASE REGISTER.
R0       EQU   0                   REGISTER 0.
R1       EQU   1                   REGISTER 1.
R2       EQU   2                   REGISTER 2.
R3       EQU   3                   REGISTER 3.
R4       EQU   4                   REGISTER 4.
R5       EQU   5                   REGISTER 5.
R6       EQU   6                   REGISTER 6.
R7       EQU   7                   REGISTER 7.
R8       EQU   8                   REGISTER 8.
R9       EQU   9                   REGISTER 9.
R10      EQU   10                  REGISTER 10.
R11      EQU   11                  REGISTER 11.
R12      EQU   12                  REGISTER 12.
R13      EQU   13                  REGISTER 13.
R14      EQU   14                  REGISTER 14.
R15      EQU   15                  REGISTER 15.
         LA    R15,&SAVE           ADDRESS OF OUR SAVE AREA.
         ST    R13,4(R15)          BACKWARD SAVE AREA CHAIN.
         ST    R15,8(R13)          FORWARD SAVE AREA CHAIN.
         LR    R13,R15             POINT R13 TO CURRENT SAVE AREA.
         B     &START              BRANCH TO ENTRY CODE.
&EOJ     CH    R15,$$RC            IS RETURN CODE HIGHER THAN &RC?
         BNH   *+6                 YES - LETS ZERO R15.
         SR    R15,R15             ZERO OUT REGISTER 15.
         L     R13,&SAVE+4         POINT R13 TO PREVIOUS SAVE AREA.
         L     R14,12(R13)         RESTORE REGISTER 14.
         LM    R0,R12,20(R13)      RESTORE THE REGISTERS.
         BR    R14                 RETURN TO OS.
&SAVE    DS    18F                 OUR SAVE AREA.
$$RC     DC    H'&RC'              RETURN CODE.
$$START  DS    0H                  DEFAULT ENTRY POINT.
         MEND
