         MACRO
&NAME    PRIME &REG=12,&SAVE=,&ID=,&LV=0
.* PRIME WILL SAVE REGISTERS, CREATE A NEW SAVE AREA, CHAIN THE NEW
.* SAVE AREA TO THE CALLERS SAVE AREA, ESTABLISH ADDRESSABILITY,
.* OPTIONALLY OBTAIN ADDITIONAL STORAGE AND IN GENERAL PERFORM THE
.* NECESSARY ENTRY LINKAGE.
.* IF THE USER DOES NOT SPECIFY WHAT REGISTER HE REQUIRES FOR A BASE,
.* TWELVE IS USED.  NOTE..IF REG= IS SPECIFIED TO BE 0, 1, 13, 14, OR
.* 15  A WARNING MESSAGE IS ISSUED.
.* IF THE USER SPECIFIES A SAVE AREA VIA THE SAVE= OPERAND THEN PRIME
.* WILL CHAIN THE USERS SAVE AREA TO THE CALLERS SAVE AREA. IF THE
.* USER DOES NOT SPECIFY SAVE,THEN PRIME WILL OBTAIN A NEW SAVE AREA
.* VIA THE GETMAIN SVC.  AN ADDITIONAL AMOUNT OF STORAGE MAY BE
.* OBTAINED AT THIS TIME BY SPECIFIEING THE LV=, OPERAND.  IF LV IS NOT
.* SPECIFIED IN REGISTER NOTATION, 4023 IS THE MAXIMUM VALUE.
.* IF THE USER SPECIFIES SAVE=NONE, PRIME WILL NOT OBTAIN A NEW AREA.
.* REG 13 WILL POINT TO THE NEW 18 WORD SAVE AREA FOLLOWED BY THE EXTRA
.* STORAGE AREA.
         LCLA  &A,&B
         LCLC  &E,&F,&G,&H
         AIF   ('&NAME' EQ '').NONAME
&NAME    DS    0H
.NONAME  ANOP
         AIF   ('&ID' EQ '').CONT4
         AIF   ('&ID' EQ '*').SPEC
&A       SETA  ((K'&ID+2)/2)*2+4
         USING *,&REG
&A       SETA  K'&ID
         DC    AL1(&A)
.CONTB   AIF   (&A GT 32).SPLIT
.CONTAA  AIF   (&A GT 8).BRAK
&E       SETC  '&ID'(&B+1,&A)
         DC    CL&A'&E'
         AGO   .CONT1
.BRAK    ANOP
&E       SETC  '&ID'(&B+1,8)
         DC    CL8'&E'
&B       SETA  &B+8
&A       SETA  &A-8
         AGO   .CONTAA
.SPLIT   ANOP
&E       SETC  '&ID'(&B+1,8)
&F       SETC  '&ID'(&B+9,8)
&G       SETC  '&ID'(&B+17,8)
&H       SETC  '&ID'(&B+25,8)
         DC    CL32'&E.&F.&G.&H'
&B       SETA  &B+32
&A       SETA  &A-32
         AGO   .CONTB
.SPEC    AIF   ('&NAME' EQ '').CSECTN
&E       SETC  '&NAME'
&A       SETA  1
.CONTQ   AIF   ('&E'(1,&A) EQ '&E').LVE
&A       SETA  &A+1
         AGO   .CONTQ
.LVE     ANOP
&B       SETA  ((&A+2)/2)*2+4
         USING *,&REG
         DC    AL1(&A)
         DC    CL&A'&E'
         AGO   .CONT1
.CSECTN  AIF   ('&SYSECT' EQ '').E4
&E       SETC  '&SYSECT'
&A       SETA  1
         AGO   .CONTQ
.E4      IHBERMAC 78,360
.CONT4   ANOP
         USING *,&REG
.CONT1   ANOP
         AIF   ('&REG' EQ '0' OR '&REG' EQ '1' OR '&REG' EQ '13').ERR1
         AIF   ('&REG' EQ '14' OR '&REG' EQ '15').ERR1
.CONT3   ANOP
         DS    0H
         STM   14,12,12(13)             SAVE REGS IN CALLERS AREA
         LR    &REG,15                  SET TRUE BASE EQUAL EP
         AIF ('&SAVE' EQ 'NONE').A
         AIF   ('&SAVE' EQ '').C
         AIF   ('&SAVE'(1,1) EQ '(').F
         LA    1,&SAVE                  SET R1 EQ USERS SAVE ADDRESS
         AGO   .D
.F       ANOP
         AIF   ('&SAVE' EQ '(1)').D
         LR    1,&SAVE(1)               PICK UP USERS SAVE AREA
         AGO   .D
.C       ANOP
         AIF   ('&LV'(1,1) EQ '(').E
         AIF   ('&LV' GT '4023').ERR2
         LA    0,&LV.+72(0,0)           PARAMETER FOR GETMAIN
         AGO   .CONT2
.E       ANOP
         AIF   ('&LV' EQ '(0)').CONT2
         LA    0,72(&LV(1).,0)          PARAMETER FOR GETMAIN
.CONT2   ANOP
         BAL   1,*+4                    INDICATE GETMAIN
         SVC   10                       ISSUE SVC 10
         ST    0,0(0,1)                 SAVE LENGTH IN 1ST WORD
.D       ANOP
         XC    4(68,1),4(1)             CLEAR AREA
         ST    1,8(0,13)                CHAIN FORWARD
         ST    13,4(0,1)                CHAIN BACKWARD
         LM    0,1,20(13)               RESET R0 AND R1
         L     13,8(0,13)               SET SAVE AREA REGISTER
.A       ANOP
         MEXIT
.ERR1    MNOTE 'ILLEGAL BASE REGISTER SPECIFIED'
         AGO   .CONT3
.ERR2    MNOTE 'LV GT 4023, LV REQUEST NOT HONORED'
         LA    0,72(0,0)                PARAMETER FOR GETMAIN
         AGO   .CONT2
         MEND
