         MACRO
&NAME    QMAJ
QMAJ     DSECT
QMAJFLAG DS    X                   FLAG INDICATING STATUS OF ENTRY
         ORG   QMAJFLAG
QMAJNEXT DS    F                   PTR TO NEXT ENTRY
QMAJMIN  DS    F                   PTR TO FIRST MIN IN CHAIN
QMAJNAME DS    CL8                 MAJOR NAME
QMAJCTR  DS    F                   WAIT COUNTER
*        THE TOP BIT OF WAIT COUNTER IS SET TO ONE TO INDICATE
*        THAT THE ENTRY SHOULD NOT BE INCLUDED IN TOTAL WAIT
QMAJL    EQU   *-QMAJ              LENGTH OF ONE ENTRY
QMAJEMP  EQU   X'80'               INDICATES EMPTY ENTRY-ALSO TESTED
*                                  AS QMAJNEXT MINUS
         MEND
