         MACRO
&NAME    REGDEF &RBASE=10,&RDSA=13,&RPARM=2,&RPRV=12,&RBR=14
         GBLB  &RREGD01
         AIF   (T'&NAME EQ 'O').OK1
         MNOTE *,'&NAME - NAME FIELD IGNORED'
.OK1     ANOP
***********************************************************************
*                                                                     *
*               SYMBOLIC   REGISTER   DEFINITIONS                     *
*                                                                     *
***********************************************************************
         SPACE 2
***********************************************************************
*                                                                     *
*                GENERAL   PURPOSE   REGISTERS                        *
*                                                                     *
***********************************************************************
         SPACE 1
         AIF   (&RREGD01).OK2
R0       EQU   0 .                      <---------
R1       EQU   1 .                      <---------
         AGO   .OK3
.OK2     ANOP
*R0      EQU   0 .                      <--------- (PREV. INCLUDED)
*R1      EQU   1 .                      <--------- (PREV. INCLUDED)
.OK3     ANOP
R2       EQU   2 .                      <---------
R3       EQU   3 .                      <---------
R4       EQU   4 .                      <---------
R5       EQU   5 .                      <---------
R6       EQU   6 .                      <---------
R7       EQU   7 .                      <---------
R8       EQU   8 .                      <---------
R9       EQU   9 .                      <---------
R10      EQU   10 .                     <---------
R11      EQU   11 .                     <---------
R12      EQU   12 .                     <---------
R13      EQU   13 .                     <---------
R14      EQU   14 .                     <---------
R15      EQU   15 .                     <---------
         SPACE 3
***********************************************************************
*                                                                     *
*             FLOATING    POINT    REGISTERS                          *
*                                                                     *
***********************************************************************
         SPACE 1
F0       EQU   0 .                      <=========
F2       EQU   2 .                      <=========
F4       EQU   4 .                      <=========
F6       EQU   6 .                      <=========
         SPACE 3
***********************************************************************
*                                                                     *
*                MACRO   GENERATED   ENTRIES                          *
*                                                                     *
***********************************************************************
         SPACE 2
         AIF   ((T'&RBASE NE 'N')OR(&RBASE LE 2)OR(&RBASE GE 13)).EE1
RBASE    EQU   &RBASE
         AGO   .AA2
.EE1     AIF   ('&RBASE' EQ '').AA2
         MNOTE 8,'RBASE=&RBASE IS ILLEGAL OR INVALID'
.AA2     AIF   ((T'&RDSA  NE 'N')OR(&RDSA  LE 2)OR(&RDSA  GE 14)).EE2
RDSA     EQU   &RDSA
         AGO   .AA3
.EE2     AIF   ('&RDSA' EQ '').AA3
         MNOTE 8,'RDSA=&RDSA IS ILLEGAL OR INVALID'
.AA3     AIF   ((T'&RPARM NE 'N')OR(&RPARM LT 0)OR(&RPARM GT 15)).EE3
RPARM    EQU   &RPARM
         AGO   .AA4
.EE3     AIF   ('&RPARM' EQ '').AA4
         MNOTE 8,'RPARM=&RPARM IS ILLEGAL OR INVALID'
.AA4     AIF   ((T'&RPRV NE 'N')OR(&RPRV LE 2)OR(&RPRV GE 13)).EE4
RPRV     EQU   &RPRV
         AGO   .AA5
.EE4     AIF   ('&RPRV' EQ '').AA5
         MNOTE 8,'RPRV=&RPRV IS ILLEGAL OR INVALID'
.AA5     AIF   ((T'&RBR NE 'N')OR(&RBR LT 0)OR(&RBR GT 15)).EE5
RBR     EQU   &RBR
         AGO   .AA6
.EE5     AIF   ('&RBR' EQ '').AA6
         MNOTE 8,'RBR=&RBR IS ILLEGAL OR INVALID'
.AA6     SPACE 3
         MEND
