         MACRO
&NAME    RESTORE  &LIST
         AIF      ('&LIST' EQ '').E1
&NAME    IHBINNRA &LIST                LOAD PARM REGISTER 1
         SVC   17                      ISSUE RESTORE I/O SVC
         MEXIT
.E1      IHBERMAC 01,150               LIST ADDR MISSING
         MEND
