         MACRO
&NAME    RETURNX &AREA=,&REG1=14,&REG2=12,&RC=
         LCLC   &A
         LCLC   &B
         LCLC    &C
         LCLC  &D
&D       SETC  '&NAME'
         AIF    (K'&AREA EQ 0).DFLT
&C       SETC   '&AREA'.'+4'
         AGO    .STRT
.DFLT    ANOP
&C       SETC   '4(13)'
.STRT    ANOP
         AIF    (K'&RC EQ 0).STRT1
&B       SETC   '&RC'(1,1)
         AIF    ('&B' NE '(').STRT1
.C2      AIF    (K'&RC GT 3).C3
&A       SETC   '&RC'(2,1)
         AGO    .C4
.C3      AIF    (K'&RC GT 4).C5
&A       SETC   '&RC'(2,2)
         AIF    ('&A' EQ '15').C6
.C4      ANOP
&NAME    LR     15,&A -            SET RETURN CODE
&D       SETC  ' '
.C6      ANOP
&D       L      13,&C -        LOAD SAVE AREA ADDRESS
         L     14,12(13) -        RESTORE REGISTERS
         LM    0,12,20(13)
         AGO    .C1
.STRT1   ANOP
&NAME    L      13,&C -        LOAD SAVE AREA ADDRESS
         LM     &REG1,&REG2,12(13) -    RESTORE REGISTERS
         AIF   (K'&RC EQ 0).C1
         LA     15,&RC -            SET RETURN CODE
.C1      MVI    12(13),X'FF' -    SET NORMAL RETURN FLAG
         BR     14 -              RETURN TO CALLING PROGRAM
         MEXIT
.C5      ANOP
&A       SETC  '&RC'(2,K'&RC-2)
         AGO   .C4
         MEND
