         MACRO
&NAME    SCHEDULE &PGM,&PARM=,&PRMLIST=
         GBLA  &X,&I,&PARMS
         AIF   ('&PRMLIST' EQ '').NOPARM
&NAME    LA    R1,&PRMLIST       POINT TO PARM
         AGO   .GETPGM
.NOPARM  ANOP
&PARMS   SETA  N'&PARM
         AIF   (&PARMS EQ 0).NPARM
&X       SETA  &PARMS*4+4
&I       SETA  1
         CNOP  0,4
&NAME    BAL   1,*+&X
.CYCPARM ANOP
         AIF   (&I EQ &PARMS).LSTPARM
         DC    A(&PARM(&I))
&I       SETA  &I+1
         AGO   .CYCPARM
.LSTPARM ANOP
         DC    X'80',AL3(&PARM(&I))
         AGO   .GETPGM
.NPARM   ANOP
         AIF   ('&NAME' EQ '').GETPGM
&NAME    DS    0H
.GETPGM  ANOP
         L     R2,=V(&PGM)
         L     R15,=V(SCHEDULE)
         BALR  R14,R15
         MEND
