         MACRO
&NAME    SP3CHECK  &DUMMY
.*
.*  THIS MACRO WILL SET THE CONDITION CODE TO EQUAL IF THE
.*  OPERATING SYSTEM IS MVS/SP 1.3.0 OR HIGHER; OTHERWISE THE
.*  CODE WILL BE NOT EQUAL. REGISTER 15 IS DESTROYED.
.*
.*  HOWARD M. DEAN  05/26/83
.*
&NAME    L     15,16         OBTAIN MVS CVT POINTER
         L     15,1076(,15)  OBTAIN UCB LOOKUP SERVICE ROUTINE
         CLC   =C'IOSVSUCB',5(15)
*                            EQUAL IF MVS/SP 1.3.0 OR HIGHER
         MEND
