         MACRO
&NAME    SPLOC &PAR1,&PAR2,&PAR3,&PAR4,&MF=
         LCLA  &A1,&A2
         LCLB  &B(6)
         LCLC  &C
&A1      SETA  1792                                         *HMD 02/80*
&A2      SETA  4352
         AIF   (T'&NAME EQ 'O').GB1
&C       SETC  '&NAME'
.GB1     ANOP
&B(1)    SETB  (T'&MF EQ 'O')
         AIF   (N'&MF GT 2).E1
&B(2)    SETB  (T'&PAR1 NE 'O' AND '&PAR1' EQ 'NAME')
&B(3)    SETB  (T'&PAR2 NE 'O')
&B(4)    SETB  (T'&PAR3 NE 'O')
&B(5)    SETB  (T'&PAR4 NE 'O')
&B(6)    SETB  (N'&MF EQ 1)
         AIF   (NOT &B(2)).E2
         AIF   (&B(1)).SFORM
         AIF   ('&MF(1)' EQ 'L').LFORM
         AIF   ('&MF(1)' NE 'E').E1
         AIF   (T'&MF(2) EQ 'O').E7
         AIF   ('&MF(2)'(1,1) EQ '(').EB1
&C       LA    1,&MF(2)
&C       SETC  '        '
         AGO   .EB2
.EB1     AIF   ('&MF(2)'(1,3) NE '(1)').E5
.EB2     AIF   (NOT &B(3)).EB3
         AIF   ('&PAR2'(1,1) EQ '(').EREG1
&C       LA    15,&PAR2
&C       SETC  '        '
         ST    15,4(1)
         AGO   .EB3
.EREG1   ST    &PAR2(1),4(1)
.EB3     AIF   (NOT &B(4)).EB4
         AIF   ('&PAR3'(1,1) EQ '(').EREG2
&C       LA    15,&PAR3
&C       SETC  '        '
         ST    15,8(1)
         AGO   .EB4
.EREG2   ST    &PAR3(1),8(1)
.EB4     AIF   (NOT &B(5)).EB5
         AIF   ('&PAR4'(1,1) EQ '(').EREG3
&C       LA    15,&PAR4
&C       SETC  '        '
         ST    15,12(1)
         AGO   .EB5
.EREG3   ST    &PAR4(1),12(1)
.EB5     ANOP
&C       SVC   26
         MEXIT
.SFORM   AIF   (NOT &B(3)).E3
         AIF   (NOT &B(5)).E4
         CNOP  0,4
&C       BAL   1,*+28
         DC    H'&A1.,&A2.'
         DC    5A(0)
         AIF   ('&PAR2'(1,1) EQ '(').SREG1
         LA    15,&PAR2
         ST    15,4(1)
         AGO   .SB1
.SREG1   ST    &PAR2(1),4(1)
.SB1     AIF   (NOT &B(4)).SB2
         AIF   ('&PAR3'(1,1) EQ '(').SREG2
         LA    15,&PAR3
         ST    15,8(1)
         AGO   .SB2
.SREG2   ST    &PAR3(1),8(1)
.SB2     AIF   ('&PAR4'(1,1) EQ '(').SREG3
         LA    15,&PAR4
         ST    15,12(1)
         AGO   .SB3
.SREG3   ST    &PAR4(1),12(1)
.SB3     SVC   26
         MEXIT
.LFORM   AIF   (&B(6)).LB1
         AIF   ('&MF'(2,1) EQ '(').E5
         AGO   .E6
.LB1     CNOP  0,4
&C       DC    H'&A1.,&A2.'
         AIF   (&B(3)).LB2
         DC    A(0)
         AGO   .LB3
.LB2     DC    A(&PAR2.)
.LB3     AIF   (&B(4)).LB4
         DC    A(0)
         AGO   .LB5
.LB4     DC    A(&PAR3.)
.LB5     AIF   (&B(5)).LB6
         DC    3A(0)
         MEXIT
.LB6     DC    A(&PAR4.,0,0)
         MEXIT
.E1      WBCERMAC 4,4
         MEXIT
.E2      WBCERMAC 1
         MEXIT
.E3      WBCERMAC 2
         MEXIT
.E4      WBCERMAC 3
         MEXIT
.E5      WBCERMAC 4,2
         MEXIT
.E6      WBCERMAC 4,3
         MEXIT
.E7      WBCERMAC 4,1
         MEND
