         MACRO
&NAME    SUPRET &RC=
         GBLB  &SUPER,&GS
         GBLC  &REG
         AIF   (&SUPER EQ 0).STR
         AIF   (&GS EQ 1).GS
.STR     ANOP
&NAME    L     13,4(13)
.BK1     ANOP
         AIF   ('&RC' EQ '').NORC
         AIF   ('&RC'(1,1) EQ '(').REG
         AIF   (T'&RC EQ 'F').FULL
         LA    15,&RC
         ST    15,16(13)
         AGO   .NORC
.FULL    ANOP
         L     15,&RC
         ST    15,16(13)
.NORC    ANOP
         LM    14,12,12(13)
         BR    14
         AGO   .END
.REG     ANOP
         AIF   ('&RC'(3,1) EQ ')').ONEDIG
&REG     SETC  '&RC'(2,2)
         ST    &REG,16(13)
         AGO   .NORC
.ONEDIG  ANOP
&REG     SETC  '&RC'(2,1)
         ST    &REG,16(13)
         AGO   .NORC
.GS      ANOP
&NAME    GOTO  GIVESAVE
         AGO   .BK1
.END     MEND
