         MACRO ,                                                  40000
&NAME    TESTVSN &VOLSER,&ERRTN
.*
         AIF   ('&VOLSER' EQ '').MNOTE1
         AIF   ('&ERRTN' EQ '').MNOTE1
.*
.TEST    ANOP  ,
&NAME    DS    0H
         AIF   ('&VOLSER'(1,1) EQ '(').TEST01
         LA    R1,&VOLSER -       POINT TO VOLUME SERIAL NUMBER
         AGO   .TEST02
.TEST01  ANOP  ,
         LR    R1,&VOLSER(1) -    POINT TO VOLUME SERIAL NUMBER
.TEST02  ANOP  ,
         L     R15,TMSHASH -      GET ADDRESS OF TMSHASH
         BALR  R14,R15 -          VERIFY VOLUME SERIAL NUMBER
         LTR   R1,R1 -            Q. VALID VOLUME SERIAL NUMBER
         BZ    &ERRTN -           A. ZERO - NO
         MEXIT
.*
.MNOTE1  MNOTE 8,'TESTVSN MACRO MISSING PARAMETERS'
         MEXIT
.*
         MEND
