*        %GOTO IFAL40;   /*
         MACRO
&NAME    IFASMFR4 &RECTYPE
.* *                                                                  *
.* * MACMEAN IFASMFR4 MEANS SYSTEM MANAGEMENT FACILITY RECORD MAPPING *
.* * MACCOMP Y-2 SC102/BL27P                                          *
.* * MACSTAT Y-2 73298/42020                                          *
.* * METHOD OF ACCESS                                                 *
.* *   PL/S - INCLUDE MACRO FROM LIBRARY                              *
.* *           EXAMPLE - %INCLUDE SYSLIB(IFASMFR4)                    *
.* *                                                                  *
.* *          THIS MACRO EXPANDS RECORDS 37 - 46.                     *
.* *                                                                  *
.* *
.* THIS IS AN SMF MACRO WHICH BUILDS SMF RECORDS 37 - 46. THE REQUIRED
.* FORMAT IS -
.*
.*        IFASMFR4  &RECTYPE
.**********************************************************************
         AIF   (&RECTYPE EQ 40).IFAS040
         AIF   (&RECTYPE EQ 43).IFAS043                         Y02120
         AIF   (&RECTYPE EQ 44).IFAS044                       @Z40EPPF
         AIF   (&RECTYPE EQ 45).IFAS045                         Y02120
.E5      ANOP
         SPACE 3
         MNOTE 4,'&RECTYPE INVALID RECORD TYPE SPECIFIED'
.CONTB   ANOP
         MEXIT
.IFAS040 ANOP
         EJECT
* WRITTEN BY DYNAMIC DEVICE ALLOCATION WHEN PROCESSING DEALLOCATION,
* CONCATENATION AND DECONCATENATION. LENGTH IS VARIABLE.
* MINIMUM OF 70 BYTES.
         DS    0F        ALIGN TO FULL WORD BOUNDARY
SMFRCD40 EQU   *        START OF RECORD                        @ZA05171
TDDSMF   EQU   *                   SMF DYNAMIC DD RECORD FORMAT
TDDRLEN  DS    BL2'0'    RECORD LENGTH
TDDRSEG  DS    BL2'0'    SEGMENT DESCRIPTOR
TDDRFLG  DC    BL1'0'              HEADER FLAG BYTE
TDDRCDTY DC    BL1'0'              RECORD TYPE (40 DECIMAL)
TDDRCDTS DC    BL4'0'              TIME STAMP  TOD 100THS SECS
TDDRCDTE DC    PL4'0000'                       DATE 00YYDDDF
TDDCPUID DC    CL4' '              CPU IDENTIFICATION (SYSTEM, MODEL)
TDDUIF   DC    CL8' '              USER IDENTIFICATION FIELD
TDDUID   EQU   TDDUIF
TDDONTME DC    BL4'0'              LOGON TIME  TOD  100THS SECS
TDDONDTE DC    PL4'0000'                       DATE 00YYDDDF
TDDUDATA DC    CL8' '              RESV FOR USER
TDDINVSQ DC    BL1'0'              STEP SEQUENCE NUMBER
TDDFLG   DC    BL1'0'    INDICATION OF FUNCTION THAT CAUSED THIS
*                        DYNAMIC RECORD
*                           VALUE     RECORD CAUSED BY
*                           '01'      RESERVED
*                           '02'      UNALLOCATION
*                           '03'      CONCATENATION
*                           '04'      DECONCATENATION
TDDRIN   DC    BL2'0'              RECORD INDICATORS           @YM02618
*                                  BITS 0-6 RESERVED           @YM02618
*                                  7 POSSIBLE ERROR IN DEV ENTRY DATA
*                                  8-15 RESERVED               @YM02618
TDDRVA   DC    BL18'0'             RESERVED                    @YM02618
TDDVAR   DC    BL2'0'              LENGTH OF REST OF RECORD
*                                  (INCLUDING THESE TWO BYTES)
TDDEXCP  EQU   *                   DEVICES USED AND EXCP COUNTS
*
*                                  EACH DEVICE
*
TDDDEVC  DC    BL1'0'              DEVICE CLASS
TDDUTYP  DC    BL1'0'              UNIT TYPE
TDDCUAD  DC    BL2'0'              CHANNEL/UNIT ADDRESS
SMF40VDV EQU   X'80'               VIRTUAL INDICATOR           @Y30AQPF
TDDNEXCP DC    4BL1'0'             EXCP COUNT
         ORG   TDDDEVC
         AGO   .CONTB
.IFAS043 ANOP                                                    Y02120
         EJECT                                                   Y02120
* SUBSYSTEM START RECORD TYPE 43                                 Y02120
         DS    0F       ALIGNMENT TO FULL WORD BOUNDRY           Y02120
SMFRCD43 DSECT
SMF43HDR EQU   *        HEADER SEGMENT                           Y02120
SMF43LEN DS    BL2      RECORD LENGTH                            Y02120
SMF43SEG DS    BL2      SEGMENT DESCRIPTOR                       Y02120
SMF43FLG DS    BL1      HEADER FLAG BYTE                         Y02120
SMF43RTY DS    BL1      RECORD TYPE 43                           Y02120
SMF43TME DS    F        TOD FROM TIME MACRO BINARY               Y02120
SMF43DTE DS    PL4      DATE FROM TIME MACRO                     Y02120
SMF43SID DS    CL4      SYSTEM IDENTIFIER                        Y02120
* SUBSYSTEM IDENTIFICATION SECTION                               Y02120
SMF43SBS DS    BL2      SUBSYSTEM IDENTIFIER                     Y02120
*                       X'0002' JES2                             Y02120
*                       X'0005' JES3                           @ZA05171
*                       X'0006' SS06                           @Z40EPPF
SMF43RSV DS    BL2      RESV                                     Y02120
SMF43LRR DS    BL2      LGTH OF REMAINDER OF RECORD              Y02120
*                       (NOT INCLUDING THIS FIELD)               Y02120
SMF43SBP EQU   *        SUBSYSTEM SECTION BEGINNING              Y02120
* JES2 AND JES3 COMMON SECTION                                 @ZA05171
SMF43RV1 DS    BL2      RESV                                   @Z30AQPF
SMF43RST DS    BL1      START RECORD FLAGS                     @Z30AQPF
SMF$ESYS EQU   X'80'    IF 1 THEN SMF43EID FIELD IS RESTARTED SYSTEM ID
*                                                              @Z30AQPF
SMF43CLD EQU   X'80'    COLD START (JES3)                      @ZA05171
SMF43WRM EQU   X'40'    WARM START                             @ZA05171
SMF43HOT EQU   X'20'    HOT START                              @ZA05171
SMF43ANL EQU   X'10'    QUEUE ANALYSIS REQUIRED                @ZA05171
SMF43GBL EQU   X'08'    GLOBAL SYSTEM                          @ZA05171
SMF43LCL EQU   X'04'    LOCAL SYSTEM                           @ZA05171
*        EQU   X'02'    RESERVED                               @ZA05171
SMF43DSI EQU   X'01'    DYNAMIC SYSTEM INTERCHANGE             @ZA05171
SMF43SBG EQU   *        JES2,JES3 UNCOMMON SECTIONS            @ZA05171
* JES2 SECTION                                                 @ZA05171
SMF43OPT DS    BL1      JES2 OPTIONS                             Y02120
*                       BIT MEANING WHEN SET                     Y02120
*                        0 - FORMAT THE SPOOL                    Y02120
*                        1 - COLD START                          Y02120
*                        2 - REQUEST INIT AUTO                   Y02120
*                        3 - LIST REPLACEMENTS                 @YM04806
*                        4-7 RESV                              @YM04806
SMF43EID DS    CL4      SYSTEM ID OF SYSTEM TO BE WARMSTARTED IF
*                       &ESYS OR 0 FOR START JES 2             @Z30AQPF
         ORG   SMF43SBG                                        @ZA05171
* JES3 SECTION                                                 @ZA05171
SMF43RV2 DS    BL1      RESERVED FLAGS                         @ZA05171
SMF43US1 DS    BL1      USER FLAGS                             @ZA05171
SMF43NMU DS    CL1      INITIALIZATION DECK ORIGIN TYPE        @ZA05171
SMF43ORG DS    CL8      INITIALIZATION DECK ORIGIN             @ZA05171
*                        TYPE-ORIGIN CONTENTS                  @ZA05171
*                        N-MEMBER NAME(JCL DEFAULT)            @ZA05171
*                        M-MEMBER NAME(OPER CHOICE)            @ZA05171
*                        U-UNIT ADDRESS(OP CHOICE)             @ZA05171
SMF43UNT EQU   SMF43ORG,3     UNIT ADDRESS                     @ZA05171
SMF43PJ3 DS    CL4       JES3 PROCEDURE NAME                   @ZA05171
SMF43RVJ DS    CL8       RESERVED FOR JES3                     @ZA05171
SMF43RVU DS    CL4       RESERVED FOR USER                     @ZA05171
SMF43END DS    0X        END OF JES3 RECORD                    @ZA05171
SMF43SIZ DS    0XL(SMF43END-SMFRCD43) SIZE OF JES3 SMF43 RECORD@ZA05171
         ORG   SMF43SBP                                        @ZA05171
* SS06 SECTION                                                 @Z40EPPF
SMF43PRC DC    CL8' '   SS06 START PROC NAME                   @Z40EPPF
SMF43INT DC    CL73' '  INITIALIZATION                         @Z40EPPF
         AGO   .CONTB                                            Y02120
.IFAS044 ANOP                                                  @Z40EPPF
         EJECT                                                 @Z40EPPF
* SUBSYSTEM MODIFY RECORD TYPE 44                              @Z40EPPF
SMFRCD44 DSECT
SMF44HDR EQU   *        HEADER SEGMENT                         @Z40EPPF
SMF44LEN DS    BL2      RECORD LENGTH                          @Z40EPPF
SMF44SEG DS    BL2      SEGMENT DESCRIPTION                    @Z40EPPF
SMF44FLG DS    BL1      HEADER FLAG BYTE                       @Z40EPPF
SMF44RTY DS    BL1      RECORD TYPE 44                         @Z40EPPF
SMF44TME DS    F        TOD FROM TIME MACRO BINARY             @Z40EPPF
SMF44DTE DC    PL4'0000' DATE                                  @Z40EPPF
SMF44SID DC    CL4' '   SYSTEM ID                              @Z40EPPF
* END OF SEGMENT COMMON TO ALL RECORDS                         @Z40EPPF
* SUBSYSTEM IDENTIFICATION SECTION                             @Z40EPPF
SMF44SBS DS    BL2      SUBSYSTEM IDENTIFIER                   @Z40EPPF
*                       X'0006' SS06                           @Z40EPPF
SMF44RSV DS    BL2      RESV                                   @Z40EPPF
SMF44LRR DS    BL2      LENGTH REST OF RECORD                  @Z40EPPF
* END OF SECTION COMMON TO ALL SUBSYSTEMS                      @Z40EPPF
SMF44SBG EQU   *        SUBSYSTEM SECTION BEGINNING            @Z40EPPF
* SS06 SECTION                                                 @Z40EPPF
SMF44PRC DC    CL8' '   SS06 PROC NAME                         @Z40EPPF
SMF44OPT DC    CL73' '  INITIALIZATION OPTIONS                 @Z40EPPF
         ORG   SMF44SBG                                        @Z40EPPF
         AGO   .CONTB                                          @Z40EPPF
.IFAS045 ANOP                                                    Y02120
         EJECT                                                   Y02120
* SUBSYSTEM STOP RECORD TYPE 45                                  Y02120
         DS    0F       ALIGN TO FULL WORD BOUNDRY               Y02120
SMFRCD45 DSECT          START OF RECORD                        @ZA05171
SMF45HDR EQU   *        HEADER SEGMENT                           Y02120
SMF45LEN DS    BL2      RECORD LENGTH                            Y02120
SMF45SEG DS    BL2      SEGMENT DESCRIPTOR                       Y02120
SMF45FLG DS    BL1      HEADER FLAG BYTE                         Y02120
SMF45RTY DS    BL1      RECORD TYPE 45                           Y02120
SMF45TME DS    F        TOD FROM TIME MACRO BINARY               Y02120
SMF45DTE DS    PL4      DATE FROM TIME MACRO                     Y02120
SMF45SID DS    CL4      SYSTEM IDENTIFICATION                    Y02120
* SUBSYSTEM IDENTIFICATION SECTION                               Y02120
SMF45SBS DS    BL2      SUBSYSTEM IDENTIFIER                     Y02120
*                       X'0002' JES2                             Y02120
*                       X'0005' JES3                           @ZA05171
*                       X'0006' SS06                           @Z40EPPF
SMF45RSV DS    BL2      RESV                                     Y02120
SMF45LRR DS    BL2      LGTH OF REMAINDER OF RECORD              Y02120
*                       (NOT INCLUDING THIS FIELD)               Y02120
SMF45SBG EQU   *        SUBSYSTEM SECTION BEGINNING              Y02120
* JES2 SECTION                                                 @YM04806
SMF45IND DS    BL2      INDICATORS                             @YM04806
*                       BIT 0 ABNORMAL TERMINATION             @YM04806
*                       1-15 RESERVED                          @YM04806
SMF45JCC DS    BL2      JES2 COMPLETION CODE                   @YM04806
         ORG   SMF45SBG                                          Y02120
* JES3 SECTION                                                 @ZA05171
SMF45FG1 DS    BL1      STOP RECORD FLAGS                      @ZA05171
SMF45ABN EQU   X'80'    SUBSYSTEM ENDED DUE TO ABEND           @ZA05171
SMF45DSI EQU   X'40'    DSI HAS BEEN INVOKED                   @ZA05171
SMF45J3C DS    XL3      COMPLETION CODE(SYS/USER)              @ZA05171
SMF45RV1 DS    BL1      RESERVED                               @ZA05171
SMF45US1 DS    BL1      USER FLAG                              @ZA05171
SMF45RVJ DS    CL8      RESERVED FOR JES3                      @ZA05171
SMF45RVU DS    CL4      RESERVED FOR USER                      @ZA05171
SMF45END DS    0X       END OF JES3 RECORD                     @ZA05171
SMF45SIZ DS    0XL(SMF45END-SMFRCD45) SIZE OF JES3 45 RECORD   @ZA05171
         ORG   SMF45SBG                                        @ZA05171
* SS06 SECTION                                                 @Z40EPPF
SMF45PRC DC    CL8' '   SS06 PROCNAME                          @Z40EPPF
SMF45STF DS    BL1      SYSTEM TERMINATION FLAGS               @Z40EPPF
SMF45HLT EQU   128      HALT ISSUED                            @Z40EPPF
SMF45OPS EQU   64       OPERATOR STOP                          @Z40EPPF
SMF45ABT EQU   32       ABNORMAL TERMINATION                   @Z40EPPF
SMF45NOS EQU   16       NOSAVE SPECIFIED IN HALT               @Z40EPPF
SMF45UID DS    BL3      USER ID FOR HALT                       @Z40EPPF
SMF45NUL DS    BL2      NO. USERS LOGGED ON AT TERMINATION     @Z40EPPF
         AGO   .CONTB                                            Y02120
         MEND           */
