*        %GOTO IFAL62;   /*
         MACRO
&NAME    IFASMFR6 &RECTYPE
.* *                                                                  *
.* * MACMEAN IFASMFR6 MEANS SYSTEM MANAGEMENT FACILITY RECORD MAPPING *
.* * MACCOMP Y-2 SC102/BL27P                                          *
.* * MACSTAT Y-2 73298/42020                                          *
.* * METHOD OF ACCESS                                                 *
.* *  PL/S - INCLUDE MACRO FROM LIBRARY                               *
.* *          EXAMPLE - %INCLUDE SYSLIB(IFASMFR6)                     *
.* *                                                                  *
.* *          THIS MACRO EXPANDS RECORDS 55-69.                       *
.* *                                                                  *
.* *
.* THIS IS AN SMF MACRO WHICH BUILDS SMF RECORDS 55-69. THE REQUIRED
.* FORMAT IS -
.*
.*       IFASMFR6 &RECTYPE
.**********************************************************************
         AIF   (&RECTYPE EQ 62).IFAS062                          Y02113
         AIF   (&RECTYPE EQ 63).IFAS063
         AIF   (&RECTYPE EQ 64).IFAS064                          Y02113
         AIF   (&RECTYPE EQ 67).IFAS067
         AIF   (&RECTYPE EQ 68).IFAS068                         Y02113
         AIF   (&RECTYPE EQ 69).IFAS069                         Y02113
.E5      ANOP
         SPACE 3
         MNOTE 4,'&RECTYPE INVALID RECORD TYPE SPECIFIED'
.CONTB   ANOP
         MEXIT
.IFAS062 ANOP                                                    Y02113
         EJECT                                                   Y02113
* THIS DSECT DEFINES THE FORMAT FOR RECORD TYPE 62 (VSAM DATA SETY02113
* OPEN RECORD). RECORD LENGTH IS VARIABLE. MINIMUM OF 148 BYTES. Y02113
         DS    0F                  ALIGN TO FULL WORD BOUNDRY    Y02113
SMFRCD62 DSECT                     HEADER SEGMENT                Y02113
SMF62LEN DS    BL2'0'              RECORD LENGTH                 Y02113
SMF62SEG DS    BL2'0'              SEGMENT DESCRIPTOR            Y02113
SMF62FLG DC    BL1'0'              HEADER FLAG BYTE              Y02113
SMF62RTY DC    BL1'0'              RECORD TYPE 62                Y02113
SMF62TME DC    BL4'0'              TOD, USING FORMAT FROM TIME   Y02113
*                                  MACRO WITH BIN INTERVAL       Y02113
SMF62DTE DC    PL4'0000'           DATE IN PACKED DECIMAL FORM   Y02113
*                                  00YYDDDF (F IS THE SIGN)      Y02113
SMF62SID DC    CL4' '              SYSTEM IDENTIFICATION         Y02113
SMF62JBN DC    CL8' '              JOBNAME                       Y02113
SMF62RST DC    BL4'0'              READER START TIMER (.01 SEC)  Y02113
SMF62RSD DC    PL4'0000'           READER START DATE             Y02113
SMF62UIF DC    CL8' '              USER IDENTIFICATION FIELD     Y02113
SMF62IND DC    BL4'0'              OPEN STATUS INDICATOR         Y02113
*                                  BIT MEANING WHEN SET          Y02113
*                                  BIT 0 - OPEN SUCCESSFUL       Y02113
*                                  BIT 1 - SECURITY VIOLATION    Y02113
*                                          (INVALID PASSWORD)    Y02113
*                                  BITS 2-31 - RESERVED          Y02113
SMF62CNM DC    CL44' '             CATALOG DATA SET NAME         Y02113
SMF62CVS DC    CL6' '              CATALOG VOLUME SERIAL NUMBER  Y02113
SMF62DNM DC    CL44' '             DATA SET NAME                 Y02113
SMF62VCT DC    BL2'0'              VOLUME COUNT                  Y02113
SMF62VLT EQU   *                   VOLUME LIST                   Y02113
* THE FOLLOWING ENTRY IS CREATED FOR EACH VOLUME                 Y02113
SMF62VSR DC    CL6' '              VOLUME SERIAL                 Y02113
SMF62DTY DC    BL4'0'              DEVICE TYPE                   Y02113
         ORG   SMF62VLT                                          Y02113
         AGO   .CONTB                                            Y02113
.IFAS063 ANOP
         EJECT
*  THIS RECORD IS WRITTEN AFTER A VSAM CLUSTER OR COMPONENT IS DEFINED
*  AND WHEN THE DEFINITION IS ALTERED.
*
SMFRCD63 DSECT           HEADER SEGMENT
SMF63LEN DS    BL2'0'    RECORD LENGTH
SMF63SEG DS    BL2'0'    SEGMENT DESCRIPTOR
SMF63FLG DS    BL1'0'    HEADER FLAG BYTE
SMF63RTY DS    BL1'0'    RECORD TYPE 63
SMF63TME DS    BL4'0'    TOD USING FORMAT FROM TIME MACRO W/BIN. INTVL.
SMF63DTE DS    PL4'0000' DATE IN PACKED DECIMAL FORM: OOYYDDDF
SMF63SID DS    CL2' '    SYSTEM IDENTIFICATION
SMF63SMI DS    CL2' '    SYSTEM MODEL IDENTIFIER
SMF63JBN DS    CL8' '    JOB NAME
SMF63RST DS    BL4'0'    READER START TIME (IN 100THS SECONDS)
SMF63RSD DS    PL4'0000' READER START DATE
SMF63UIF DS    CL8' '    USER IDENTIFICATION FIELD
SMF63FDT DS    BL1'0'    FUNCTION AND DATA SET TYPE INDICATOR
*                        BIT0 - NEW DEFINITION
*                        BIT1 - ALTERED DEFINITION
*                        BIT2-7 - RESERVED
SMF63TYP DS    BL1'0'    TYPE OF ENTRY
*                        BIT0 - CLUSTER
*                        BIT1 - VSAM DATA COMPONENT
*                        BIT2 - INDEX COMPONENT
*                        BIT3 - CATALOG
*                        BIT4 - NON-VSAM DATA SET
*                        BIT5 - GENERATION DATA GROUP
*                        BIT6 - ALIAS
*                        BIT7 - RESERVED
SMF63NSZ DS    BL2'0'    SIZE OF NEW CATALOG RECORD
SMF63OSZ DS    BL2'0'    SIZE OF OLD CATALOG RECORD
SMF63CNM DS    CL44' '   NAME OF CATALOG IN WHICH ENTRY IS DEFINED
SMF63ENM DS    CL44' '   ENTRY NAME
SMF63NCR DS    0H        NEW CATALOG RECORD
         ORG   SMF63NCR
SMF63OCR DS    0H        OLD CATALOG RECORD
         AGO   .CONTB
.IFAS064 ANOP                                                    Y02113
         EJECT                                                   Y02113
* THIS DSECT DEFINES THE FORMAT FOR RECORD TYPE 64 (VSAM DATA    Y02113
* SET STATUS AT CLOSE OR EOV TIME). RECORD LENGTH IS VARIABLE.   Y02113
* MINIMUM OF 254 BYTES.                                          Y02113
SMFRCD64 DSECT                      HEADER SEGMENT               Y02113
SMF64LEN DS    BL2'0'               RECORD LENGTH                Y02113
SMF64SEG DS    BL2'0'               SEGMENT DESCRIPTOR           Y02113
SMF64FLG DC    BL1'0'               HEADER FLAG BYTE             Y02113
SMF64RTY DC    BL1'0'               RECORD TYPE 64               Y02113
SMF64TME DC    BL4'0'               TOD, USING FORMAT FROM TIME  Y02113
*                                   MACRO WITH BIN INTERVAL      Y02113
SMF64DTE DC    PL4'0000'            DATE IN PACKED DECIMAL FORM  Y02113
*                                   00YYDDDF (F IS THE SIGN)     Y02113
SMF64SID DC    CL4' '               SYSTEM IDENTIFICATION        Y02113
SMF64JBN DC    CL8' '               JOBNAME                      Y02113
SMF64RST DC    BL4'0'               READER START TIME (IN 100THS Y02113
*                                   SECONDS)                     Y02113
SMF64RSD DC    PL4'0000'            READER START DATE            Y02113
SMF64UIF DC    CL8' '               USER IDENTIFICATION FIELD    Y02113
SMF64RIN DC    BL1'0'               RECORDING INDICATORS         Y02113
*                                   BIT MEANING WHEN SET         Y02113
*                                   BIT 0 - RECORD WRITTEN BY CLOSE
*                                   BIT 1 - RECORD WRITTEN BY EOV-
*                                           VOLUME SWITCH        Y02113
*                                   BIT 2 - RECORD WRITTEN BY EOV-
*                                           OUT OF SPACE         Y02113
*                                   BITS 3-7 RESERVED            Y02113
SMF64DTY DC    BL1'0'               DATA SET TYPE                Y02113
*                                   BIT MEANING WHEN SET         Y02113
*                                   BIT 0 - DATA SET             Y02113
*                                   BIT 1 - INDEX                Y02113
*                                   BITS 2-7 - RESERVED          Y02113
SMF64CNM DC    CL44' '              CATALOG NAME                 Y02113
SMF64DNM DC    CL44' '              DATA SET NAME                Y02113
SMF64NTR DC    BL2'0'               NUMBER OF TRACKS REQUIRED    Y02113
SMF64CHR DC    BL4'0'               CURRENT HIGH RBA             Y02113
SMF64ESL DC    BL2'0'               EXTENT SEGMENT LENGTH        Y02113
SMF64FEX EQU   *                    EXTENT TABLE - ONE PER VOLUMEY02113
*                                   ONLINE AT TIME RECORD WRITTENY02113
SMF64FCC DC    BL4'0'               FROM CCHH                    Y02113
SMF64TCC DC    BL4'0'               TO CCHH                      Y02113
SMF64VSN DC    CL6' '               VOLUME SERIAL NUMBER         Y02113
SMF64CUU DC    BL2'0'               CHANNEL AND UNIT CCUU        Y02113
SMF64IND DC    BL2'0'               MODULE/SPINDLE ID            Y02113
SMF64UTY DC    BL4'0'               UNIT TYPE - UCBTYPE          Y02113
SMF64RV1 DC    CL4' '               RESERVED                     Y02113
         ORG   SMF64FEX                                          Y02113
SMF64STS EQU   *                    DATA SET STATISTICS AT OPEN  Y02113
*                                   TIME                         Y02113
SMF64SLN DC    BL4'0'               STATISTICS SEGMENT LENGTH    Y02113
SMF64NIL DC    BL4'0'               NUMBER INDEX LEVEL           Y02113
SMF64NEX DC    BL4'0'               NUMBER EXTENTS               Y02113
SMF64NLR DC    BL4'0'               NUMBER LOGICAL RECORDS       Y02113
SMF64NDE DC    BL4'0'               NUMBER DELETES               Y02113
SMF64NIN DC    BL4'0'               NUMBER INSERTS               Y02113
SMF64NUP DC    BL4'0'               NUMBER UPDATES               Y02113
SMF64NRE DC    BL4'0'               NUMBER RETRIEVES             Y02113
SMF64NFS DC    BL4'0'               NUMBER FREE SPACE-UNUSED CI'SY02113
SMF64NCS DC    BL4'0'               NUMBER CI SPLITS             Y02113
SMF64NAS DC    BL4'0'               NUMBER CA SPLITS             Y02113
SMF64NEP DC    BL4'0'               NUMBER EXCPS COUNT           Y02113
* DATA SET STATISTICS FOR THIS OPEN                              Y02113
SMF64DIL DC    BL4'0'               NUMBER INDEX LEVEL           Y02113
SMF64DEX DC    BL4'0'               NUMBER EXTENTS               Y02113
SMF64DLR DC    BL4'0'               NUMBER LOGICAL RECORDS       Y02113
SMF64DDE DC    BL4'0'               NUMBER DELETES               Y02113
SMF64DIN DC    BL4'0'               NUMBER INSERTS               Y02113
SMF64DUP DC    BL4'0'               NUMBER UPDATES               Y02113
SMF64DRE DC    BL4'0'               NUMBER RETRIEVES             Y02113
SMF64DFS DC    BL4'0'               NUMBER FREE SPACE            Y02113
SMF64DCS DC    BL4'0'               NUMBER CI SPLITS             Y02113
SMF64DAS DC    BL4'0'               NUMBER CA SPLITS             Y02113
SMF64DEP DC    BL4'0'               NUMBER EXCPS COUNT           Y02113
SMF64DBS DC    BL4'0'               PHYSICAL BLOCK SIZE        @ZA05513
SMF64DCI DC    BL4'0'               CONTROL INTERVAL SIZE      @ZA05513
SMF64DLS DC    BL4'0'               MAX. LOGICAL RECORD LNG.   @ZA05513
SMF64DKL DC    BL2'0'               KEY LENGTH                 @ZA25191
SMF64DDN DC    CL8' '               DD NAME                    @ZA05513
         AGO   .CONTB                                            Y02113
.IFAS067 ANOP
         EJECT
* THIS RECORD IS WRITTEN WHEN A VSAM CATALOG ENTRY IS DELETED
*
SMFRCD67 DSECT           HEADER SEGMENT
SMF67LEN DS    BL2'0'    RECORD LENGTH
SMF67SEG DS    BL2'0'    SEGMENT DESCRIPTOR
SMF67FLG DS    BL1'0'    HEADER FLAG BYTE
SMF67RTY DS    BL1'0'    RECORD TYPE 67
SMF67TME DS    BL4'0'    TOD USING FORMAT FROM TIME MACRO W/BIN INTERVL
SMF67DTE DS    PL4'0000' DATE IN PACKED DECIMAL FORMAT: 00YYDDDF
SMF67SID DS    CL2' '    SYSTEM IDENTIFICATION
SMF67SMI DS    CL2' '    SYSTEM MODEL IDENTIFIER
SMF67JBN DS    CL8' '    JOB NAME
SMF67RST DS    BL4'0'    READER START TIME (IN 100THS SECONDS)
SMF67RSD DS    PL4'0000' READER START DATE
SMF67UIF DS    CL8' '    USER IDENTIFICATION FIELD
SMF67FDT DS    BL1'0'    FUNCTION AND DATA SET TYPE INDICATOR
*                        BIT0 - UNCATALOGED
*                        BIT1 - SCRATCHED
*                        BIT 2-7 - RESERVED
SMF67IOD DS    BL1'0'    INDICATOR OF OBJECT DELETED
*                        BIT0 - CLUSTER
*                        BIT1 - DATA COMPONENT
*                        BIT2 - INDEX COMPONENT
*                        BIT3 - CATALOG
*                        BIT4 - NON-VSAM DATA SET
*                        BIT5 - GENERATION DATA GROUP
*                        BIT6 - ALIAS
*                        BIT7 - RESERVED
SMF67CNM DS    CL44' '   NAME OF CATALOG IN WHICH ENTRY WAS DEFINED
SMF67DEN DS    CL44' '   NAME OF ENTRY THAT WAS DELETED
SMF67RSZ DS    BL2'0'    SIZE OF CATALOG RECORD THAT DEFINED THE ENTRY
SMF67CRC DS    0H        CATALOG RECORD
        AGO   .CONTB
.IFAS068 ANOP                                                    Y02113
         EJECT                                                   Y02113
* THIS DSECT DEFINES THE FORMAT FOR RECORD TYPE 68 (VSAM DATA    Y02113
* SET RENAMED).  RECORD LENGTH IS 170 BYTES                      Y02113
SMFRCD68 DSECT                      HEADER SEGMENT               Y02113
SMF68LEN DS    BL2'0'               RECORD LENGTH                Y02113
SMF68SEG DS    BL2'0'               SEGMENT DESCRIPTOR           Y02113
SMF68FLG DC    BL1'0'               HEADER FLAG BYTE             Y02113
SMF68RTY DC    BL1'0'               RECORD TYPE 68               Y02113
SMF68TME DC    BL4'0'               TOD USING FORMAT FROM TIME   Y02113
*                                   MACRO WITH BIN INTERVAL      Y02113
SMF68DTE DC    PL4'0000'            DATE IN PACKED DECIMAL FORMATY02113
*                                   00YYDDDF (F IS THE SIGN)     Y02113
SMF68SID DC    CL4' '               SYSTEM IDENTIFICATION        Y02113
SMF68JBN DC    CL8' '              JOBNAME                       Y02113
SMF68RST DC    BL4'0'              READER START TIME (IN 100THS  Y02113
*                                  SECONDS)                      Y02113
SMF68RSD DC    PL4'0000'            READER START DATE            Y02113
SMF68UIF DC    CL8' '               USER IDENTIFICATION FIELD    Y02113
SMF68CNM DC    CL44' '              CATALOG NAME                 Y02113
SMF68ONM DC    CL44' '              OLD DATA SET NAME            Y02113
SMF68NNM DC    CL44' '              NEW DATA SET NAME            Y02113
         AGO   .CONTB                                            Y02113
.IFAS069 ANOP                                                    Y02113
         EJECT                                                   Y02113
* THIS DSECT DEFINES THE FORMAT FOR RECORD TYPE 69 (VSAM DATA    Y02113
* SPACE DEFINED OR DELETED).  RECORD LENGTH IS 102 BYTES.        Y02113
SMFRCD69 DSECT                     HEADER SEGMENT                Y02113
SMF69LEN DS    BL2'0'              RECORD LENGTH                 Y02113
SMF69SEG DS    BL2'0'              SEGMENT DESCRIPTOR            Y02113
SMF69FLG DC    BL1'0'              HEADER FLAG BYTE              Y02113
SMF69RTY DC    BL1'0'              RECORD TYPE 69                Y02113
SMF69TME DC    BL4'0'              TOD, USING FORMAT FROM TIME   Y02113
*                                  MACRO WITH BIN INTERVAL       Y02113
SMF69DTE DC    PL4'0000'           DATE IN PACKED DECIMAL FORM   Y02113
*                                  00YYDDDF (F IS THE SIGN)      Y02113
SMF69SID DC    CL4' '              SYSTEM IDENTIFICATION         Y02113
SMF69JBN DC    CL8' '              JOBNAME                       Y02113
SMF69RST DC    BL4'0'              READER START TIME IN 100THS   Y02113
*                                  SECONDS                       Y02113
SMF69RSD DC    PL4'0000'           READER START DATE             Y02113
SMF69UIF DC    CL8' '              USER IDENTIFICATION FIELD     Y02113
SMF69CUU DC    BL2'0'              CHANNEL AND UNIT CCUU         Y02113
SMF69IND DC    BL2'0'              MODULE/SPINDLE ID             Y02113
SMF69NDS DC    BL2'0'              NUMBER OF EXTENT ON VOLUME    Y02113
SMF69NUC DC    BL2'0'              NUMBER UNALLOCATED CYLS ON    Y02113
*                                  VOLUME                        Y02113
SMF69NUT DC    BL2'0'              NUMBER UNALLOCATED TRKS. ON   Y02113
*                                  VOLUME-NOT IN UNAL CYL'S      Y02113
SMF69LNC DC    BL2'0'              LARGEST # FREE CONTG. CYLS    Y02113
SMF69LNT DC    BL2'0'              LARGEST # FREE CONTG. TRKS    Y02113
SMF69CNM DC    CL44' '             CATALOG NAME                  Y02113
SMF69VSR DC    CL6' '              VOLUME SERIAL                 Y02113
         AGO   .CONTB                                            Y02113
         MEND            */
