*        %GOTO IFAL70;   /*
         MACRO
&NAME    IFASMFR7 &RECTYPE
.* *                                                                  *
.* * MACMEAN IFASMFR7 MEANS SYSTEM MANAGEMENT FACILITY RECORD MAPPING *
.* * MACCOMP Y-2 SC102/BL27P                                          *
.* * MACSTAT Y-2 73298/42020                                          *
.* * METHOD OF ACCESS                                                 *
.* *  PL/S - INCLUDE MACRO FROM LIBRARY                               *
.* *          EXAMPLE - %INCLUDE SYSLIB(IFASMFR7)                     *
.* *                                                                  *
.* *          THIS MACRO EXPANDS RECORDS 70-73.                       *
.* *                                                                  *
.* *
.* THIS IS AN SMF MACRO WHICH BUILDS SMF RECORDS 70-73. THE REQUIRED
.* FORMAT IS -
.*
.*         IFASMFR7  &RECTYPE
.**********************************************************************
         AIF   (&RECTYPE EQ 70).IFAS070                         Y02150
         AIF   (&RECTYPE EQ 71).IFAS071                         Y02150
         AIF   (&RECTYPE EQ 72).IFAS072                         Y02150
         AIF   (&RECTYPE EQ 73).IFAS073                         Y02150
.E5      ANOP                                                    Y02150
         SPACE 3
         MNOTE 4,'&RECTYPE INVALID RECORD TYPE SPECIFIED'
.CONTB   ANOP
         MEXIT
.IFAS070 ANOP                                                    Y02150
         EJECT                                                   Y02150
*  CPU ACTIVITY TRACE RECORD TYPE 70.                            Y02150
*  VARIABLE LENGTH (MINIMUM 52 BYTES)
*  LENGTH FORMULA = 14 + SIZ + SCC + (CPU*SCD)                   Y02150
*                                                                Y02150
SMFRCD70 DSECT          HEADER SEGMENT                           Y02150
SMF70LEN DS    BL2      RECORD LENGTH                            Y02150
SMF70SEG DS    BL2      SEGMENT DESCRIPTOR                       Y02150
SMF70FLG DS    BL1      HEADER FLAG BYTE                         Y02150
SMF70RTY DS    BL1      RECORD TYPE (70), ONLY HEADER FIELD SET  Y02150
*                       BY GENERATOR OF RECORD                   Y02150
SMF70TME DS    BL4      TOD FROM TIME MACRO BINARY               Y02150
SMF70DTE DS    PL4      DATE FROM TIME MACRO                     Y02150
SMF70SID DS    CL4      SYSTEM IDENTIFICATION                    Y02150
*                       COMMON CONTROL DATA                      Y02150
SMF70SIZ DS    BL2      SIZE OF COMMON CONTROL DATA SECTION      Y02150
SMF70IST DS    PL4      TOD MEASUREMENT INTERVAL START 0HHMMSSF  Y02150
SMF70DAT DS    PL4      DATE INTERVAL START 00YYDDDF             Y02150
SMF70INT DS    PL4      DURATION OF INTERVAL MMSSTTTF            Y02150
SMF70CYC DS    PL2      RESV                                     Y02150
SMF70SUB DS    BL2      RESV                                     Y02150
SMF70SAM DS    BL4      RESV                                     Y02150
SMF70MFV DS    CL2      MF/1 VERSION # IN EBCDIC                 Y02150
SMF70RV1 DS    BL2      RESV                                     Y02150
SMF70RLS DS    CL4      OP SYS REL # & LEVEL IN EBCDIC  NNLL     Y02150
*                       CPU CONTROL AREA                         Y02150
SMF70SCC DS    BL2      SIZE OF CPU CONTROL AREA                 Y02150
SMF70CPU DS    BL2      # CPU MEASUREMENTS IN CPU DATA AREA      Y02150
SMF70SCD DS    BL2      SIZE OF EACH CPU DATA AREA               Y02150
SMF70RV2 DS    BL2      RESV                                     Y02150
*                       CPU DATA AREA                            Y02150
SMF70WAT DS    BL8      CPU WAIT IN TOD FORMAT(BIT 51=1 MICRO)   Y02150
SMF70CID DS    BL2      CPU ID                                   Y02150
SMF70RV3 DS    BL1      RESV                                     Y02150
SMF70CNF DS    BL1      CONFIGURATION ACTIVITY                   Y02150
SMF70VAC EQU   2        DATA INVALID, CPU VARIED ON OR OFF       Y02150
SMF70STA EQU   1        CPU IS CURRENTLY ONLINE                  Y02150
SMF70RV4 DS    BL1      RESV                                     Y02150
SMF70SER DS    CL3      CPU SERIAL #(6 HEX DIGITS)               Y02150
         ORG   SMF70WAT                                          Y02150
         AGO   .CONTB                                            Y02150
.IFAS071 ANOP                                                    Y02150
         EJECT                                                   Y02150
*  PAGING ACTIVITY TRACE TABLE RECORD TYPE 71.                   Y02150
*  VARIABLE LENGTH (MINIMUM 132 BYTES)                           Y02150
*  LENGTH FORMULA = 14 + SIZ + SPC + SPD                         Y02150
*                                                                Y02150
SMFRCD71 DSECT          HEADER SEGMENT                           Y02150
SMF71LEN DS    BL2      RECORD LENGTH                            Y02150
SMF71SEG DS    BL2      SEGMENT DESCRIPTOR                       Y02150
SMF71FLG DS    BL1      HEADER FLAG BYTE                         Y02150
SMF71RTY DS    BL1      RECORD TYPE (71), ONLY HEADER FIELD SET  Y02150
*                       BY GENERATOR OF RECORD                   Y02150
SMF71TME DS    BL4      TOD FROM TIME MACRO BINARY               Y02150
SMF71DTE DS    PL4      DATE FROM TIME MACRO                     Y02150
SMF71SID DS    CL4      SYSTEM IDENTIFICATION                    Y02150
*                       COMMON CONTROL DATA                      Y02150
SMF71SIZ DS    BL2      SIZE OF COMMON CONTROL DATA SECTION      Y02150
SMF71IST DS    PL4      TOD MEASUREMENT INTERVAL START 0HHMMSSF  Y02150
SMF71DAT DS    PL4      DATE INTERVAL START 00YYDDDF             Y02150
SMF71INT DS    PL4      DURATION OF INTERVAL MMSSTTTF            Y02150
SMF71CYC DS    BL2      RESV                                     Y02150
SMF71SUB DS    BL2      RESV                                     Y02150
SMF71SAM DS    BL4      RESV                                     Y02150
SMF71MFV DS    CL2      MF/1 VERSION # IN EBCDIC                 Y02150
SMF71RV1 DS    BL2      RESV                                     Y02150
SMF71RLS DS    CL4      OP SYS REL # & LEVEL IN EBCDIC  NNLL     Y02150
*                       PAGING CONTROL AREA                      Y02150
SMF71SPC DS    BL2      SIZE OF PAGING CONTROL AREA              Y02150
SMF71SPD DS    BL2      SIZE OF PAGING DATA AREA                 Y02150
*                       PAGING DATA AREA                         Y02150
SMF71PIN DS    BL4      PAGE-INS EXCLUDING VIO AND SWAP          Y02150
SMF71POT DS    BL4      PAGE-OUTS EXCLUDING VIO AND SWAP         Y02150
SMF71PRC DS    BL4      PAGE RECLAIMS EXCLUDING VIO              Y02150
SMF71SSQ DS    BL4      # OF MEMORY SWAP SEQUENCES               Y02150
SMF71SIN DS    BL4      SWAP-IN PAGES                            Y02150
SMF71SOT DS    BL4      SWAP-OUT PAGES                           Y02150
SMF71VIN DS    BL4      VIO PAGE-INS                             Y02150
SMF71VOT DS    BL4      VIO PAGE-OUTS                            Y02150
SMF71VRC DS    BL4      VIO PAGE RECLAIMS                        Y02150
SMF71SNI DS    BL4      SYSTEM PAGABLE AREAS NON-VIO PAGE-INS    Y02150
SMF71SNO DS    BL4      SPA NON-VIO PAGE-OUTS                    Y02150
SMF71SNR DS    BL4      SPA NON-VIO PAGE RECLAIMS                Y02150
SMF71SVI DS    BL4      SPA VIO PAGE-INS                         Y02150
SMF71SVO DS    BL4      SPA VIO PAGE-OUTS                        Y02150
SMF71SVR DS    BL4      SPA VIO PAGE RECLAIMS                    Y02150
SMF71AFC DS    BL4      MAIN STORAGE AVAILABLE FRAME COUNT       Y02150
SMF71TFC DS    BL4      MAIN STORAGE TOTAL FRAME COUNT           Y02150
SMF71TSC DS    BL4      AUX TOTAL SLOT COUNT                     Y02150
SMF71DSC DS    BL4      AUX DATA SET SLOT COUNT                  Y02150
SMF71VSC DS    BL4      AUX VIRTUAL MEMORY SLOT COUNT            Y02150
SMF71NSC DS    BL4      AUX UNALLOCATED SLOT COUNT               Y02150
         AGO   .CONTB                                            Y02150
.IFAS072 ANOP                                                    Y02150
         EJECT                                                   Y02150
*  WORKLOAD ACTIVITY TRACE RECORD TYPE 72.                       Y02150
*  VARIABLE LENGTH (MINIMUM 60 BYTES)                            Y02150
*  LENGTH FORMULA = 14 + SIZ + SWC + (PGP*SPD)                   Y02150
*                                                                Y02150
SMFRCD72 DSECT          HEADER SEGMENT                           Y02150
SMF72LEN DS    BL2      RECORD LENGTH                            Y02150
SMF72SEG DS    BL2      SEGMENT DESCRIPTOR                       Y02150
SMF72FLG DS    BL1      HEADER FLAG BYTE                         Y02150
SMF72RTY DS    BL1      RECORD TYPE (72), ONLY HEADER FIELD SET  Y02150
*                       BY GENERATOR OF RECORD                   Y02150
SMF72TME DS    BL4      TOD FROM TIME MACRO BINARY               Y02150
SMF72DTE DS    PL4      DATE FROM TIME MACRO                     Y02150
SMF72SID DS    CL4      SYSTEM IDENTIFICATION                    Y02150
*                       COMMON CONTROL DATA                      Y02150
SMF72SIZ DS    BL2      SIZE OF COMMON CONTROL DATA SECTION      Y02150
SMF72IST DS    PL4      TOD MEASUREMENT INTERVAL START OHHMMSSF  Y02150
SMF72DAT DS    PL4      DATE INTERVAL START 00YYDDDF             Y02150
SMF72INT DS    PL4      DURATION OF INTERVAL MMSSTTTF            Y02150
SMF72CYC DS    BL2      RESV                                     Y02150
SMF72SUB DS    BL2      PERFORMANCE GROUP #                      Y02150
SMF72SAM DS    BL4      RESV                                     Y02150
SMF72MFV DS    CL2      MF/1 VERSION # IN EBCDIC                 Y02150
SMF72RV1 DS    BL2      RESV                                     Y02150
SMF72RLS DS    CL4      OP SYS REL # & LEVEL IN EBCDIC  NNLL     Y02150
*                       WORKLOAD CONTROL AREA                    Y02150
SMF72SWC DS    BL2      SIZE OF WORKLOAD CONTROL AREA            Y02150
SMF72PGP DS    BL2      # OF PGP MEASUREMENT IN PGP DATA AREA    Y02150
SMF72SPD DS    BL2      SIZE OF EACH PGP DATA AREA               Y02150
SMF72HPG DS    BL2      HIGHEST PERF GROUP(PG) # DEFINED IN IPS  Y02150
SMF72IPS DS    CL8      NAME OF INSTALLATION PERF SPEC           Y02150
*                       PERF GROUP PERIOD DATA                   Y02150
SMF72TTX DS    BL4      # OF TERMINATED TRANSACTIONS             Y02150
SMF72ACT DS    BL4      ALL TRANSACTIONS ACTIVE TIME-1K MIC SEC  Y02150
SMF72SER DS    BL4      ALL TRANSACTIONS SERVICE UNITS           Y02150
SMF72TTM DS    BL4      TERM TRANS ELAPSED TIME-1K MIC SEC       Y02150
SMF72LEV DS    BL4      WORKLOAD LEVEL (1/256 OF A LEVEL)        Y02150
         ORG   SMF72TTX
         AGO   .CONTB                                            Y02150
.IFAS073 ANOP                                                    Y02150
         EJECT                                                   Y02150
*  CHANNEL ACTIVITY TRACE TABLE RECORD TYPE 73.                  Y02150
*  VARIABLE LENGTH (MINIMUM 52 BYTES)                            Y02150
*  LENGTH FORMULA = 14 + SIZ + SHC + (CHA*SHD)                   Y02150
SMFRCD73 DSECT          HEADER SEGMENT                           Y02150
SMF73LEN DS    BL2      RECORD LENGTH                            Y02150
SMF73SEG DS    BL2      SEGMENT DESCRIPTOR                       Y02150
SMF73FLG DS    BL1      HEADER FLAG BYTE                         Y02150
SMF73RTY DS    BL1      RECORD TYPE (73), ONLY HEADER FIELD SET  Y02150
*                       BY GENERATOR OF RECORD                   Y02150
SMF73TME DS    BL4      TOD FROM TIME MACRO BINARY               Y02150
SMF73DTE DS    PL4      DATE FROM TIME MACRO                     Y02150
SMF73SID DS    CL4      SYSTEM INDENTIFICATION                   Y02150
*                       COMMON CONTROL DATA                      Y02150
SMF73SIZ DS    BL2      SIZE OF COMMON CONTROL DATA SECTION      Y02150
SMF73IST DS    PL4      TOD MEASUREMENT INTERVAL START OHHMMSSF  Y02150
SMF73DAT DS    PL4      DATE INTERVAL START 00YYDDDF             Y02150
SMF73INT DS    PL4      DURATION OF INTERVAL MMSSTTTF            Y02150
SMF73CYC DS    PL2      SAMPLING CYCLE LENGTH TTTF               Y02150
SMF73SUB DS    BL2      RESV                                     Y02150
SMF73SAM DS    BL4      # OF SAMPLES                             Y02150
SMF73MFV DS    CL2      MF/1 VERSION # IN EBCDIC                 Y02150
SMF73RV1 DS    BL2      RESV                                     Y02150
SMF73RLS DS    CL4      OP SYS REL # & LEVEL IN EBCDIC  NNLL     Y02150
*                       CHANNEL CONTROL AREA                     Y02150
SMF73SHC DS    BL2      SIZE OF CHANNEL CONTROL AREA             Y02150
SMF73CHA DS    BL2      # OF MEASUREMENTS IN CHANNEL DATA AREA   Y02150
SMF73SHD DS    BL2      SIZE OF EACH CHANNEL DATA AREA           Y02150
SMF73RV2 DS    BL2      RESV                                     Y02150
*                       CHANNEL DATA AREA                        Y02150
SMF73CID DS    BL2      CPU IDENTIFIER                           Y02150
SMF73HID DS    BL1      CHANNEL IDENTIFIER                       Y02150
SMF73FG2 DS    BL1      FLAGS                                    Y02150
*                       XXXX .... TYPE OF CHANNEL                Y02150
*                       0000 .... SELECTOR CHANNEL               Y02150
*                       0001 .... BYTE MULTIPLEXOR               Y02150
*                       0010 .... BLOCK MULTIPLEXOR              Y02150
SMF73IID EQU   4        .... .1.. INVALID CHANNEL ID             Y02150
SMF73VAC EQU   2        .... ..1. DATA INVALID, VARIED ON OR OFF Y02150
SMF73STA EQU   1        .... ...1 CHANNEL IS CURRENTLY ONLINE    Y02150
SMF73CNT DS    BL4      # OF SUCCESSFUL SIO ISSUED TO CHANNEL    Y02150
SMF73BSY DS    BL4      # SAMPLES WHEN CHAN WAS IN BURST MODE    Y02150
*                       FIELD 0 FOR BYTE MULTIPLEX CHANNEL       Y02150
SMF73OLP DS    BL4      # SAMPLES CHAN BUSY & CPU WAIT           Y02150
*                       FIELD 0 FOR BYTE MULTIPLEX CHANNEL       Y02150
         ORG   SMF73CID                                          Y02150
         AGO   .CONTB                                            Y02150
         MEND            */
