*        %GOTO IFAL74;   /*
         MACRO
&NAME    IFASMFR8 &RECTYPE
.* *                                                                  *
.* * MACMEAN IFASMFR8 MEANS SYSTEM MANAGEMENT FACILITY RECORD MAPPING *
.* * MACCOMP Y-2 SC102/BL27P                                          *
.* * MACSTAT Y-2 73298/42020                                          *
.* * METHOD OF ACCESS                                                 *
.* *  PL/S - INCLUDE MACRO FROM LIBRARY                               *
.* *          EXAMPLE - %INCLUDE SYSLIB(IFASMFR8)                     *
.* *                                                                  *
.* *         THIS MACRO EXPANDS RECORDS 74-79.                        *
.* *                                                                  *
.* *
.* THIS IS AN SMF MACRO WHICH BUILDS SMF RECORDS 74-79. THE REQUIRED
.* FORMAT IS -
.*
.*          IFASMFR8  &RECTYPE
.**********************************************************************
         AIF   (&RECTYPE EQ 74).IFAS074                          Y02150
.E5      ANOP                                                    Y02113
         SPACE 3
         MNOTE 4,'&RECTYPE INVALID RECORD TYPE SPECIFIED'
.CONTB   ANOP
         MEXIT
.IFAS074 ANOP                                                    Y02150
         EJECT                                                   Y02150
*  DEVICE ACTIVITY TRACE TABLE RECORD TYPE 74.                   Y02150
*  VARIABLE LENGTH (MINIMUM 52 BYTES)                            Y02150
*  LENGTH FORMULA = 14 + SIZ + SDC + (DEV*SDD)                   Y02150
SMFRCD74 DSECT          HEADER SEGMENT                           Y02150
SMF74LEN DS    BL2      RECORD LENGTH                            Y02150
SMF74SEG DS    BL2      SEGMENT DESCRIPTOR                       Y02150
SMF74FLG DS    BL1      HEADER FLAG BYTE                         Y02150
SMF74RTY DS    BL1      RECORD TYPE (74), ONLY HEADER FIELD SET  Y02150
*                       BY GENERATOR OF RECORD                   Y02150
SMF74TME DS    BL4      TOD FROM TIME MACRO BINARY               Y02150
SMF74DTE DS    PL4      DATE FROM TIME MACRO                     Y02150
SMF74SID DS    CL4      SYSTEM IDENTIFICATION                    Y02150
*                       COMMON CONTROL DATA                      Y02150
SMF74SIZ DS    BL2      SIZE OF COMMON CONTROL DATA SECTION      Y02150
SMF74IST DS    PL4      TOD MEASUREMENT INTERVAL START OHHMMSSF  Y02150
SMF74DAT DS    PL4      DATE INTERVAL START 00YYDDDF             Y02150
SMF74INT DS    PL4      DURATION OF INTERVAL MMSSTTTF            Y02150
SMF74CYC DS    BL2      SAMPLE CYCLE LENGTH TTTF                 Y02150
SMF74SUB DS    BL2      UCB DEVICE TYPE CODE IN RIGHT BYTE       Y02150
SMF74SAM DS    BL4      # OF SAMPLES                             Y02150
SMF74MFV DS    CL2      MF/1 VERSION # IN EBCDIC                 Y02150
SMF74RV1 DS    BL2      RESV                                     Y02150
SMF74RLS DS    CL4      OP SYS REL # & LEVEL IN EBCDIC  NNLL     Y02150
*                       DEVICE CONTROL AREA                      Y02150
SMF74SDC DS    BL2      SIZE OF DEVICE CONTROL AREA              Y02150
SMF74DEV DS    BL2      # OF MEASUREMENTS IN DEVICE DATA AREA    Y02150
SMF74SDD DS    BL2      SIZE OF EACH DEVICE DATA AREA            Y02150
SMF74RV2 DS    BL2      RESV                                     Y02150
*                       DEVICE DATA AREA                         Y02150
SMF74ADD DS    PL2      DEVICE ADDRESS HHHF                      Y02150
SMF74RV3 DS    BL1      RESV                                     Y02150
SMF74CNF DS    BL1      CONFIGURATION ACTIVITY                   Y02150
SMF74VAC EQU   2        .... ..1. DATA INVALID, VARIED ON OR OFF Y02150
SMF74STA EQU   1        .... ...1 DEVICE IS CURRENTLY ONLINE     Y02150
SMF74TYP DS    BL4      UCBTYP WORD                              Y02150
SMF74SER DS    CL6      VOLUME SERIAL #                          Y02150
SMF74RV4 DS    CL2      RESV                                     Y02150
SMF74CNT DS    BL4      # OF REQUESTS SERVICED BY THIS DEVICE    Y02150
SMF74ACT DS    BL4      # OF SAMPLES WHEN DEVICE WAS BUSY        Y02150
SMF74QUE DS    BL4      SUM OF # OF ENQ REQUESTS OBSERVED        Y02150
         ORG   SMF74ADD                                          Y02150
         AGO   .CONTB                                            Y02150
         MEND                */
