         MACRO
&NAME    TRX   &F,&T
         GBLC  &TRXNAME
         AIF   ('&NAME' EQ '').A1
&TRXNAME SETC  '&NAME'
.A1      AIF   ('&T' EQ '').SAME
         ORG   &TRXNAME+&F
         DC    &T
         ORG
         MEXIT
.SAME    ORG   &TRXNAME+&F
         DC    &F
         ORG
         MEND
