         MACRO
&NAME    TSDTERM  &TYPE
.*
.* TSD SCREEN CONTROL MACRO
.*     CLEAR - ERASES 2260/3270 SCREENS
.*     POSITION - RETURNS POSITION/MAXLINES IN R0 AND R1
.*
         AIF   ('&TYPE' EQ 'POSITION').POS
         AIF   ('&TYPE' EQ 'CLEAR').CLEAR
         MNOTE 8,'*** &TYPE IS NOT A VALID CONTROL TYPE'
         MEXIT
.POS     ANOP
&NAME    LA    1,1
         AGO   .SVC
.CLEAR   ANOP
&NAME    SR    1,1
.SVC     LA    0,2
         SLL   0,24
         SVC   94
         MEND
