         MACRO
&NAME    TSOMSG &TEXT,&OFFSET=0
         LCLA  &A,&B,&C
&A       SETA  K'&TEXT+2
&B       SETA  1
&C       SETA  &A-3                     GET REAL LENGTH
.LOOP    AIF   (&B GE &C).LEND
         AIF   (('&TEXT'(&B,1) EQ '''')AND('&TEXT'(&B+1,1) EQ '''')).S1
.LNXT    ANOP
&B       SETA  &B+1
         AGO   .LOOP
.S1      ANOP
&A       SETA  &A-1
         AGO   .LNXT
.LEND    ANOP
&NAME    DC    H'&A',AL2(&OFFSET),C&TEXT
         MEND
