         MACRO
&NAME    TSOUSER &LIST
         LCLA  &A,&B,&C
         LCLC  &N,&X
&N       SETC  '&NAME'
&C       SETA  N'&SYSLIST
&B       SETA  1
         SPACE 1
.L1      AIF   (&B GT &C).MEND
&A       SETA  K'&SYSLIST(&B)
&X       SETC  '&SYSLIST(&B)'.'             '
         AIF   (&A LE 7).X1             OK
         MNOTE 8,'&SYSLIST(&B) TRUNCATED TO SEVEN CHARS'
&A       SETA  7
.X1      SPACE 1
&N       DC    AL1(&A),CL7'&X' .        TABLE ENTRY
&N       SETC  ''
&B       SETA  &B+1
         AGO   .L1
.MEND    SPACE 3
         MEND
