         MACRO
&NAME    TSSTPTR &A,&B
         AIF   ('&NAME' EQ '').CHK001
&NAME    DS    0H
.CHK001  ANOP
         AIF   (N'&A EQ 2).GEN002
         AIF   ('&A'(1,1) NE '(').GEN001
         ST    &A(1),&B
         MEXIT
.GEN001  ANOP
         LA    0,&A
         AGO   .GEN003
.GEN002  ANOP
         L     0,&A(1)
.GEN003  ANOP
         ST    0,&B
         MEND
