         MACRO
&NAME    VOLD
         GBLB  &EXC
.*  D.A. VOLUMES TABLE FORMAT
IHAVOL   DSECT
VOLBEG   DS    0F
VOLSERNO DS    CL6                 VOLUME SERIAL NUMBER
VOLUCB   DS    H
VOLPNTR  DS    F                   POINTER TO D.A. LIST
         DS    0H                  ALIGN NEXT ENTRY
VOLUCBSV DS    CL8                 SAVE ADDRESSES OF RESIDENCE (L'
*                                  ATTR=8)
VOLMINU  DS    X                   MIN USE COUNT
VOLMAXU  DS    X                   MAX USE COUNT
VOLFLAG  DS    X
VOLMORE  EQU   X'20'               MORE UCB THAN LISTED IN VOLUCBSV
VOLMAXQ  DS    X                   MAX RQE Q
VOLDTR   DS    F                   DATA TRANSFER
VOLSEEK  DS    F                   SEEK
VOLWTUN  DS    F                   WAIT FOR UNIT
VOLWTPT  DS    F                   WAIT FOR PATH
VOLNRDY  DS    F                   NON READY
VOLALLO  DS    F                   ALLOCATED
VOLCUBS  DS    F                   CU BUSY
VOLQSZE  DS    F                   RQE SIZE
VOLEXCP  DS    F                   EXCP COUNT
VOLSAVE  DS    0F
VOLMINU1 DS    X
VOLMAXU1 DS    X
         DS    X
VOLMAXQ1 DS    X
VOLDTR1  DS    F
VOLSEEK1 DS    F
VOLWTUN1 DS    F
VOLWTPT1 DS    F
VOLNRDY1 DS    F
VOLALLO1 DS    F
VOLCUBS1 DS    F
VOLQSZE1 DS    F
VOLEXCP1 DS    F
VOLEND   DS    0F
VOLIOINT DS    0F                  START OF I/O INTPT
         MEND
