 TITLE 'IFCSAXXX - VTAM RECORD SUMMARY'
*          THIS MODULE IN SUPPORT OF                            XL03004
         MACRO
&NAME    DSGEN ,
.*                            THIS MACRO GENERATES ONE DSECT WORD
.*                                 FORMATTED FOR THE SUBJECT LOG RECORD
.*                                 EACH OPERAND HAS TWO SUB LISTS. THE
.*                                 FIRST IS THE NAME OF THE LOG ITEM
.*                                 WHILE THE SECOND IS THE # OF BITS TO
.*                                 ALLOCATE FOR THIS ITEM. ITEMS MUST
.*                                 BE DEFINED CONTIGUOUSLY WITHOUT GAPS
.*                                 UNUSED BIT GROUPS MUST BE GIVEN
.*                                 DUMMY NAMES. THE NAMES PROVIDED FOR
.*                                 THE LOG ITEMS MAY THEN BE USED IN
.*                                 THE CONVERSION MACRO INSTRUCTIONS.
         GBLA  &BITS(2600),&DB,&DT,&INITIAL
         GBLA  &ITEMITR,&ITEMFST(20),&ITEMNBR,&ITEMMDX
         GBLA  &ITEMNDX(2600),&ITEMXPT
         GBLA  &LABELNR,&LASTCC,&LB,&LBLCTR(100),&LPTR,&LT
         GBLA  &NRENTS,&SHIFT(2600)
         GBLB  &DIAGITF,&DIAGLIN,&DIAGSET,&DIAGTST,&FSW,&TEST
         GBLC  &CARRCON,&CSECT,&DSECT,&ITEM(2600)
         GBLC  &LABELS(2600),&LBL(100),&NRENTSX
         LCLB  &ONLY1,&CTIND
         LCLA  &START1,&START2,&END1,&END2
         LCLC  &SYMBOL,&EQUSYM
         LCLA  &OP,&COUNT,&BYTE,&EQUCNT
         ACTR  100000
         AIF   (&ITEMITR EQ 0).START
 MNOTE   20,'DSGEN MACRO OCCURRS AFTER ITEMSORT MACRO HAS BEEN ISSUED.'
         MEXIT
.START   AIF   (N'&SYSLIST(&OP+1) LT 3).LOOP
         AIF   ('&SYSLIST(&OP+1,3)' EQ 'EQU').LOOP     TEST FOR EQU
  AIF   ('&SYSLIST(&OP+1,3)' EQ '' OR '&SYSLIST(&OP+1,4)' EQ '').ERR1
         AIF   ('&SYSLIST(&OP+1,3)' GT '&SYSLIST(&OP+1,4)').ERR3
&START1  SETA  &SYSLIST(&OP+1,3)        GET START COUNT OF 1
&START2  SETA  &SYSLIST(&OP+1,4)        GET FIRST END COUNT
         AGO   .SET2A                   BRANCH AROUND
         AIF   ('&SYSLIST(&OP+1,5)' GT '&SYSLIST(&OP+1,6)').ERR3
.ERR1    MNOTE '**FIRST SYMBOL CONCATENATION INCOMPLETE**'
         MEXIT
.SET2A   AIF   ('&SYSLIST(&OP+1,5)' EQ ''AND '&SYSLIST(&OP+1,6)' EQ '' X
               ).SET2                   TEST FOR NO SECOND
  AIF   ('&SYSLIST(&OP+1,5)' EQ '' OR '&SYSLIST(&OP+1,6)' EQ '').ERR2
&END1    SETA  &SYSLIST(&OP+1,5)        GET START COUNT OF 2
&END2    SETA  &SYSLIST(&OP+1,6)        GET END COUNT OF 2
         AGO   .LOOP
.SET2    ANOP
&ONLY1   SETB  1                        INDICATE ONLY ONE CONCATENATION
         AGO   .LOOP
.ERR2    MNOTE '**SECOND SYMBOL CONCATENATION INCOMPLETE**'
         MEXIT
.ERR3    MNOTE '**START GREATER THAN END CONCATENATION**'
         MEXIT
.LOOP    ANOP
&OP      SETA  &OP+1
         AIF   (&OP GT N'&SYSLIST).DONE      TEST IF ALL DONE
&ITEMNBR SETA  &ITEMNBR+1
         AIF   ('&SYSLIST(&OP,2)' NE '').OK1
         MNOTE '**NULL BIT COUNT FIELD**'
         MEXIT
.OK1     ANOP
&SYMBOL  SETC  '&SYSLIST(&OP,1)'
         AIF   ('&SYMBOL' NE '').OK
*              *****     LOG ITEM SYMBOL NOT PROVIDED     *****
         AIF   ('&SYSLIST(&OP,3)' NE 'EQU').CNT
         AGO   .START                   GET NEXT
.OK      AIF   (N'&SYSLIST(&OP) LT 3).NO3    TEST FOR OLD FORMAT
         AIF   ('&SYSLIST(&OP,3)' EQ 'EQU').EQU   TEST FOR EQU
         AIF   (&ONLY1).OK2             TEST FOR ONLY ONE CONCAT
&SYMBOL  SETC  '&SYMBOL.&START1.&END1'       GET 1 AND 2 CONCAT
         AGO   .NO3                     BRANCH AROUND
.OK2     ANOP
&SYMBOL  SETC  '&SYMBOL.&START1'        GET 1 CONCATENATED
.NO3     ANOP
&SYMBOL  EQU   *+&BYTE
&ITEM(&ITEMNBR) SETC '&SYMBOL'          GET LABEL IN GLOBAL
&BITS(&ITEMNBR) SETA &SYSLIST(&OP,2)
&SHIFT(&ITEMNBR) SETA &COUNT-&BYTE*8
.CNT     ANOP
&CTIND   SETB  1                        SET COUNT INDICATOR
&COUNT   SETA  &COUNT+&SYSLIST(&OP,2)
&BYTE    SETA  &COUNT/8
         AIF   (N'&SYSLIST(&OP) LT 3).START  TEST FOR OLD FORMAT
         AIF   (&ONLY1).TSTST           TEST FOR ONLY ONE CONCAT
         AIF   (&END1 EQ &END2).TSTST   TEST FOR SECOND END
&END1    SETA  &END1+1                  INCREMENT COUNT
&OP      SETA  &OP-1                    DECREMENT INCREMENT
         AGO   .LOOP                    GENERATE NEXT
.TSTST   ANOP
         AIF   (&START1 EQ &START2).LPDONE   TEST FOR END
         AIF   (&ONLY1).NSET1           TEST FOR ONLY ONE CONCAT
&END1    SETA  &SYSLIST(&OP,5)          RE-INIT SECOND START COUNT
.NSET1   ANOP
&OP      SETA  &OP-1                    DECREMENT INDEX
&START1  SETA  &START1+1                INCREMENT FIRST COUNT
         AGO   .LOOP                    GO DO NEXT
.LPDONE  ANOP
&ONLY1   SETB  0                        CLEAR INDICATOR
         AGO   .START                   GO TEST FOR MORE SUB-LISTS
.DONE    AIF   (&COUNT-&COUNT/8*8 NE 0).ERR  TEST FOR MULTIPLE OF EIGHT
         AIF   (&CTIND EQ 0).END        NO DS IF NO COUNT
&COUNT   SETA  &COUNT/8                 GET NUMBER OF BYTES
&NAME    DS    &COUNT.C
.END     MEXIT
.ERR     MNOTE '**BIT COUNT FLDS DO NOT TOTAL MULTIPLE OF 8**'
         MEXIT
.EQU     AIF   ('&SYSLIST(&OP,4)' NE '').EQU1     TEST FOR NULL LABEL
.ERR4    MNOTE '**EQU OPERAND OMITTED OR NOT FOUND**'
         MEXIT
.EQU1    AIF   (&SYSLIST(&OP,2) LT 16).EQU2  COUNT OVER FIFTEEN
*****               THE FOLLOWING STATEMENT                *****
*****     NUMBER OF BITS EXCEED 15 - DO NOT USE AS BIN     *****
.EQU2    ANOP
&EQUCNT  SETA  0                        CLEAR COUNTER
&EQUSYM  SETC  '&SYSLIST(&OP,4)'        GET EQU OPERAND
.EQULOP  ANOP
&EQUCNT  SETA  &EQUCNT+1                INCREMENT INDEX
         AIF   ('&ITEM(&EQUCNT)' EQ '&EQUSYM').EQUOUT  LABEL FOUND?
         AIF   (&EQUCNT EQ &ITEMNBR).ERR4    ALL TESTED?
         AGO   .EQULOP                  NO-GET NEXT
.EQUOUT  ANOP
&ITEM(&ITEMNBR) SETC '&SYMBOL'          GET LABEL NAME
&BITS(&ITEMNBR) SETA &SYSLIST(&OP,2)    GET NUMBER OF BITS
&SHIFT(&ITEMNBR) SETA &SHIFT(&EQUCNT)   GET SHIFT COUNT
&SYMBOL  EQU   &EQUSYM                  THIS SYMBOL EQUATED
         AGO   .START                   RETURN FOR NEXT
         MEND
         MACRO
         HEX   ,
.*                            THIS MACRO FACILITATES GENERATION OF THE
.*                                 TABLE ENTRIES SPECIFYING HEX TYPE
.*                                 CONVERSIONS.
.*                            &SYSLIST(&OP,1) - NAME OF DATA ITEM TO BE
.*                                 CONVERTED
.*                            &SYSLIST(&OP,2) - # OF SPACES TO SKIP ON
.*                                 MULTIPLE PRINT OR NBR OF SPACES TO
.*                                 BACK UP FROM COLUMN FOR START OF
.*                                 PRINTING. THE LETTER B PRECEEDS THE
.*                                 NUMBER (B8) IF THE LATTER OPTION IS
.*                                 DESIRED. OMISSION OF THIS OPERAND
.*                                 FORCES OPTION 2 WITH BACKUP SPACING
.*                                 EQUAL TO THE NUMBER OF BYTES SPECI-
.*                                 FIED BY THE NEXT OPERAND (TWICE THIS
.*                                 NUMBER IF SUFFIX IS EXPLICITLY OR
.*                                 IMPLICITLY B).
.*                            &SYSLIST(&OP,3) - NUMBER OF BYTES TO
.*                                 PROCESS. THIS NUMBER IS SUFFIXED
.*                                 WITH AN L,R, OR B TO STIPULATE
.*                                 PRINTING OF THE LEFT HALF, RIGHT
.*                                 HALF, OR BOTH HALVES OF THE BYTE
.*                                 RESPECTIVELY. OMISSION OF THIS
.*                                 OPERAND DEFAULTS TO B WITH THE NUM-
.*                                 BER OF BYTES EQUAL TO THE ITEM LNGTH
.*                            A NEW ENTRY IS GENERATED ONLY WHEN NECES-
.*                                 SARY. THIS MACRO MUST BE THE FIRST
.*                                 MACRO INSTRUCTION ISSUED FOR THE
.*                                 SUBJECT LINE(S).
         GBLA  &BITS(2600),&DB,&DT,&INITIAL
         GBLA  &ITEMITR,&ITEMFST(20),&ITEMNBR,&ITEMMDX
         GBLA  &ITEMNDX(2600),&ITEMXPT
         GBLA  &LABELNR,&LASTCC,&LB,&LBLCTR(100),&LPTR,&LT
         GBLA  &NRENTS,&SHIFT(2600)
         GBLB  &DIAGITF,&DIAGLIN,&DIAGSET,&DIAGTST,&FSW,&TEST
         GBLC  &CARRCON,&CSECT,&DSECT,&ITEM(2600)
         GBLC  &LABELS(2600),&LBL(100),&NRENTSX
         LCLB  &B,&SUB
         LCLA  &IBITS,&ISHIFT,&K,&T,&CODE,&BYTESP,&OP
         LCLC  &S,&LETTER,&ARG
       ACTR  500000
         AIF   (&DIAGTST EQ 0).NOMSG
         AIF   (&INITIAL EQ 0).NOMSG
         AIF   (&DIAGLIN EQ 1).NOMSG
         MNOTE '**NO LINE ASSOCIATED WITH THIS DATA**'
*****THE FOLLOWING GENERATED FOR TEST PURPOSES*****
*        LINE
         LINE
.NOMSG   ANOP
         AIF   (K'&SYSLIST(1) EQ K'&SYSLIST(1,1)).LOOP
&SUB     SETB  1
.LOOP    ANOP
&OP      SETA  &OP+1
&ARG     SETC  '&SYSLIST(&OP,1)'
         ITEMFIND  &ARG
         AIF   (&ITEMXPT EQ 0).MEXIT
.FOUND   ANOP
&ISHIFT  SETA  &SHIFT(&ITEMXPT)
&IBITS   SETA  &BITS(&ITEMXPT)
         AIF   (&ISHIFT EQ 0 OR &ISHIFT EQ 4).ALIGN
.ERR     MNOTE '**DATA NOT ALLIGNED ON HEX OR BYTE BOUNDARY**'
.MEXIT   MEXIT
.ALIGN   ANOP
&CODE    SETA  1
         AIF   (&SUB EQ 1).SUBA
&K       SETA  K'&SYSLIST(3)
         AGO   .SUBB
.SUBA    ANOP
&K       SETA  K'&SYSLIST(&OP,3)
.SUBB    ANOP
         AIF   (&K EQ 1).ERR3
         AIF   (&IBITS-(&IBITS/4)*4 EQ 0).OK
         MNOTE '**BIT LENGTH SPECIFICATION INCONSISTENT WITH CONTROL**'
         MEXIT
.OK      AIF   (&SUB EQ 1).SUBC
         AIF   ('&SYSLIST(3)' EQ '').USEDEFN
&LETTER  SETC  '&SYSLIST(3)'(&K,1)
&S       SETC  '&SYSLIST(3)'(1,&K-1)
         AGO   .SUBD
.SUBC    ANOP
         AIF   ('&SYSLIST(&OP,3)' EQ '').USEDEFN
&LETTER  SETC  '&SYSLIST(&OP,3)'(&K,1)
&S       SETC  '&SYSLIST(&OP,3)'(1,&K-1)
.SUBD    ANOP
&BYTESP  SETA  &S
         AIF   ('&LETTER' EQ 'B').BOTH
         AIF   ('&LETTER' EQ 'L').LEFT
         AIF   ('&LETTER' EQ 'R').RIGHT
.ERR3    MNOTE '**PARAMETER 3 INCOMPLETE-DSGEN DEFINITION USED**'
         AGO   .USEDEFN
.RIGHT   ANOP
&CODE    SETA  2
         AGO   .L
.LEFT    ANOP
&CODE    SETA  1
         AGO   .L
.USEDEFN ANOP
&BYTESP  SETA  &IBITS/8
.BOTH    AIF   (&ISHIFT NE 0).ERR
&CODE    SETA  3
&T       SETA  &BYTESP*2-1
&S       SETC  '&T'
.OK2     AIF   (&ISHIFT EQ 0).L
&CODE    SETA  2
.L       ANOP
&B       SETB  1
         AIF   (&SUB EQ 1).SUBE
         AIF   ('&SYSLIST(2)' EQ '').BACKUP
&K       SETA  K'&SYSLIST(2)
&B       SETB  ('&SYSLIST(2)'(1,1) EQ 'B')
&S       SETC  '&SYSLIST(2)'(&B+1,&K-&B)
         AGO   .SUBF
.SUBE    ANOP
         AIF   ('&SYSLIST(&OP,2)' EQ '').BACKUP
&K       SETA  K'&SYSLIST(&OP,2)
&B       SETB  ('&SYSLIST(&OP,2)'(1,1) EQ 'B')
&S       SETC  '&SYSLIST(&OP,2)'(&B+1,&K-&B)
.SUBF    ANOP
.BACKUP  ANOP
&NRENTS  SETA  &NRENTS+1
         AIF   (&BYTESP GT 0 AND &BYTESP LT 16).SUB0
         MNOTE '**NO. OF BYTES OUTSIDE RANGE OF 1-15**'
         MEXIT
.SUB0    AIF   (&SUB EQ 1).SUBG
         DC    AL.12(&SYSLIST(1)-&DSECT),XL.4'A'
         AGO   .SUBH
.SUBG    ANOP
         DC    AL.12(&SYSLIST(&OP,1)-&DSECT),XL.4'A'
.SUBH    ANOP
         DC    BL.1'&B',FL.7'&S',AL.4(&BYTESP),FL.4'&CODE'
.OUT     ANOP
&ITEMXPT     SETA  0
         AIF   (&SUB EQ 0).OUTA
         AIF   (&OP LT N'&SYSLIST).LOOP
.OUTA    ANOP
         MEND
         MACRO
         BIN   ,
.*                                 &SYSLIST(&OP,1) - NAME OF LOG ITEM
.*                                      RECORD DSECT
.*                                 $SYSLIST(&OP,2) - NBR OF SPACES
.*                                      TO SKIP ON MULTIPLE
.*                                      PRINT OR NBR OF SPACES
.*                                      TO BACK UP FROM COLUMN FOR
.*                                      START OF PRINTING. THE LETTER
.*                                      B PRECEEDS THE NUMBER (B5) IF
.*                                      THE LATTER IS DESIRED. OMISSION
.*                                      OF THIS OPERAND FORCES OPTION 2
.*                                      WITH BACKUP SPACING EQUAL TO
.*                                 THE NUMBER OF BITS IN THE ITEM
.*                                 DEFINITION (VIA MACRO 'DSGEN').
.*                            A LIMIT OF 15 BITS IS IMPOSED FOR THE
.*                                 TOTAL NUMBER OF BITS TO PRINT.
         GBLA  &BITS(2600),&DB,&DT,&INITIAL
         GBLA  &ITEMITR,&ITEMFST(20),&ITEMNBR,&ITEMMDX
         GBLA  &ITEMNDX(2600),&ITEMXPT
         GBLA  &LABELNR,&LASTCC,&LB,&LBLCTR(100),&LPTR,&LT
         GBLA  &NRENTS,&SHIFT(2600)
         GBLB  &DIAGITF,&DIAGLIN,&DIAGSET,&DIAGTST,&FSW,&TEST
         GBLC  &CARRCON,&CSECT,&DSECT,&ITEM(2600)
         GBLC  &LABELS(2600),&LBL(100),&NRENTSX
         LCLB  &B,&SUB
         LCLA  &IBITS,&ISHIFT,&K
         LCLA  &TEMP,&T,&OP
         LCLC  &S,&ARG
          ACTR  500000
         AIF   (&DIAGTST EQ 0).NOMSG
         AIF   (&INITIAL EQ 0).NOMSG
         AIF   (&DIAGLIN EQ 1).NOMSG
         MNOTE '**NO LINE ASSOCIATED WITH THIS DATA**'
*****THE FOLLOWING GENERATED FOR TEST PURPOSES*****
*        LINE
         LINE
.NOMSG   ANOP
         AIF   (K'&SYSLIST(1) EQ K'&SYSLIST(1,1)).LOOP
&SUB     SETB  1
.LOOP    ANOP
&OP      SETA  &OP+1
&ARG     SETC  '&SYSLIST(&OP,1)'
         ITEMFIND &ARG
         AIF   (&ITEMXPT EQ 0).MEXIT
&ISHIFT  SETA  &SHIFT(&ITEMXPT)
&IBITS   SETA  &BITS(&ITEMXPT)
         AIF   (&SUB EQ 1).SUB00
         AIF   ('&SYSLIST(3)' EQ '').SETT
&IBITS   SETA  &SYSLIST(3)
         AGO   .SETT
.SUB00   AIF   ('&SYSLIST(&OP,3)' EQ '').SETT
&IBITS   SETA  &SYSLIST(&OP,3)
.SETT    ANOP
&T       SETA  &IBITS-1
&B       SETB  0
         AIF   (&IBITS GT 0 AND &IBITS LT 16).SUB0
         MNOTE '**NO. OF BITS OUTSIDE RANGE OF 1-15**'
.MEXIT   MEXIT
.SUB0    AIF   (&SUB EQ 1).SUBA
         AIF   ('&SYSLIST(2)' EQ '').BACKUP
&K       SETA  K'&SYSLIST(2)
&B       SETB  ('&SYSLIST(2)'(1,1) EQ 'B')
&S       SETC  '&SYSLIST(2)'(&B+1,&K-&B)
         AGO   .SUBB
.SUBA    ANOP
         AIF   ('&SYSLIST(&OP,2)' EQ '').BACKUP
&K       SETA  K'&SYSLIST(&OP,2)
&B       SETB  ('&SYSLIST(&OP,2)'(1,1) EQ 'B')
&S       SETC  '&SYSLIST(&OP,2)'(&B+1,&K-&B)
.SUBB    ANOP
&T       SETA  &S
.BACKUP  ANOP
&NRENTS  SETA  &NRENTS+1
&TEMP    SETA  &ISHIFT
         AIF   (&IBITS NE 1 OR &B NE 0).BIN2
         DC    AL.12(&SYSLIST(&OP,1)-&DSECT),XL.4'&TEMP'
         AGO   .OUT
         AIF   (&SUB EQ 1).BIN2
         AIF   ('&SYSLIST(2)' NE '').BIN3
         AGO   .BIN2A
.BIN2    AIF   ('&SYSLIST(&OP,2)' NE '').BIN3
.BIN2A   ANOP
&B       SETB  1
.BIN3    ANOP
         DC    AL.12(&SYSLIST(&OP,1)-&DSECT),XL.4'C'
         DC    BL.1'&B',AL.7(&T),AL.4(&IBITS),FL.4'&ISHIFT'
.OUT     ANOP
&ITEMXPT     SETA  0
         AIF   (&SUB EQ 0).OUTA
         AIF   (&OP LT N'&SYSLIST).LOOP
.OUTA    ANOP
         MEND
         MACRO
&NAME    LINE  &DATA,&LABEL,&SKIP=
.*                            THIS MACRO ESTABLISHES THE MARGINS OR
.*                                 COLUMN SETTINGS FOR EACH LINE. IT
.*                                 GENERATES NECESSARY CARRIAGE CONTROL
.*                                 ENTRIES. LASTLY IT DETERMINES THE
.*                                 NUMBER OF ENTRIES ASSOCIATED WITH
.*                                 THE PREVIOUS LINE AND STORES THAT #
.*                                 INTO THE APPROPRIATE BYTE.
.*                            &DATA(1) - CHARACTER POSITION TO BEGIN
.*                                 DATA.
.*                            &DATA(2) - # OF SPACES BETWEEN SUCCESSIVE
.*                                 DATA COLUMN STARTING CHARACTERS.
.*                            &LABEL(1) - CHAR. POS. TO BEGIN LABELS.
.*                            &LABEL(2) - # SPACES BETWEEN LINE'S LABEL
.*                                 STARTING CHARACTERS.
.*                            &SKIP= - # OF LINES TO ADVANCE CARRIAGE
.*                                 TO BEGIN NEXT PRINTED LINE.
.*                            NEW ENTRIES ARE GENERATED ONLY WHEN
.*                                 NECESSARY. OMISSION OF ITEMS MEANS
.*                                 THEY HAVE NOT CHANGED SINCE PREVIOUS
.*                                 SETTINGS. A LINE MACRO IS REQUIRED
.*                                 FOR EACH PRINTED LINE. IF NO SETTING
.*                                 CHANGES ARE REQUIRED ALL OPERANDS
.*                                 ARE OMITTED IN WHICH CASE ONLY THE
.*                                 # OF ENTRIES FOR THE PREVIOUS LINE
.*                                 IS COMPUTED. THIS MACRO MUST BE THE
.*                                 FIRST MACRO INSTRUCTION ISSUED FOR
.*                                 THE SUBJECT LINE
         GBLA  &BITS(2600),&DB,&DT,&INITIAL
         GBLA  &ITEMITR,&ITEMFST(20),&ITEMNBR,&ITEMMDX
         GBLA  &ITEMNDX(2600),&ITEMXPT
         GBLA  &LABELNR,&LASTCC,&LB,&LBLCTR(100),&LPTR,&LT
         GBLA  &NRENTS,&SHIFT(2600)
         GBLB  &DIAGITF,&DIAGLIN,&DIAGSET,&DIAGTST,&FSW,&TEST
         GBLC  &CARRCON,&CSECT,&DSECT,&ITEM(2600)
         GBLC  &LABELS(2600),&LBL(100),&NRENTSX
         LCLA  &S
         AIF   (&INITIAL EQ 0 OR &DIAGTST EQ 0).DIAGSET
         AIF   (&DIAGSET EQ 0).DIAGSET
         MNOTE '**NO LABEL ASSOCIATED WITH LAST SET**'
***** THE FOLLOWING GENERATED FOR TEST PURPOSES *****
*        LABEL '%%%%%%%%%%%%%%%%%%%%%%%%%%%%%%%%%%%%%%%%%%%%%%%%'
               LABEL '%%%%%%%%%%%%%%%%%%%%%%%%%%%%%%%%%%%%%%%%%%%%%%%%'
.DIAGSET ANOP
&DIAGSET SETB  1
&DIAGLIN SETB  1
&NAME    DS    0C
         AIF   (&INITIAL EQ 0).FIRSTLN
         LINEND
         AGO   .NTFIRST
.FIRSTLN ANOP
&NRENTSX SETC  'N&SYSNDX'
&INITIAL SETA  1
N&SYSNDX EQU   *
.NTFIRST ANOP
         DC    AL1(0)
         AIF   ('&DATA(1)' EQ '').CKDTABS
         AIF   (&DATA(1) EQ &DB).CKDTABS
&DB      SETA  &DATA(1)
         AGO   .AA
.CKDTABS AIF   ('&DATA(2)' EQ '').NCDATA
         AIF   (&DATA(2) EQ &DT).NCDATA
         AGO   .CC
.AA      AIF   ('&DATA(2)' EQ '').BB
         AIF   (&DATA(2) EQ &DT).BB
.CC      ANOP
&DT      SETA  &DATA(2)
.BB      DC    XL2'FFFE'
         DC    FL1'&DB'
         DC    FL1'&DT'
&NRENTS  SETA  &NRENTS+1
.NCDATA  ANOP
         AIF   ('&LABEL(1)' EQ '').CKLTABS
         AIF   (&LABEL(1) EQ &LB).CKLTABS
&LB      SETA  &LABEL(1)
         AGO   .AAA
.CKLTABS AIF   ('&LABEL(2)' EQ '').NCLABEL
         AIF   (&LABEL(2) EQ &LT).NCLABEL
         AGO   .CCC
.AAA     AIF   ('&LABEL(2)' EQ '').BBB
         AIF   (&LABEL(2) EQ &LT).BBB
.CCC     ANOP
&LT      SETA  &LABEL(2)
.BBB     DC    XL2'FFFF'
         DC    FL1'&LB'
         DC    FL1'&LT'
&NRENTS  SETA  &NRENTS+1
.NCLABEL ANOP
         AIF   ('&SKIP' NE '').CONT
         AIF   (&TEST EQ 0).NOCHANG
         AGO   .DEFALTA
.CONT    ANOP
         AIF   (&TEST EQ 0).AB
         AIF   ('&SKIP' EQ 'E').AB
&S       SETA  &SKIP
.DEFAULT ANOP
         AIF   (&SKIP EQ &LASTCC).DEFALTA
         ORG   &CARRCON+3
         DC    AL.3(0),AL.2(&S),AL.3(1)
         ORG
&LASTCC  SETA  &S
.DEFALTA ANOP
&TEST    SETB  0
         AGO   .DD
.AB      AIF   ('&SKIP' NE 'E').ABB
A&SYSNDX DC    X'FFFB8B00'              EJECT
         AGO   .ABC
.ABB     AIF   (&SKIP EQ &LASTCC).NOCHANG
A&SYSNDX DC    XL2'FFFB'
         DC    AL.3(0),AL.2(&SKIP),AL.3(1)
         DC    AL.3(0),AL.2(&SKIP),AL.3(1)
&LASTCC  SETA  &SKIP
&TEST    SETB  1
.ABC     ANOP
&CARRCON SETC  'A&SYSNDX'
&NRENTS  SETA  &NRENTS+1
.DD      ANOP
.NOCHANG ANOP
         MEND
         MACRO
         LINEND ,
.*                                 THIS MACRO IS USED ONLY BY THE LINE
.*                                 MACRO TO SET THE NUMBER OF ENTRIES
.*                                 ASSOCIATED WITH EACH LINE.
         GBLA  &BITS(2600),&DB,&DT,&INITIAL
         GBLA  &ITEMITR,&ITEMFST(20),&ITEMNBR,&ITEMMDX
         GBLA  &ITEMNDX(2600),&ITEMXPT
         GBLA  &LABELNR,&LASTCC,&LB,&LBLCTR(100),&LPTR,&LT
         GBLA  &NRENTS,&SHIFT(2600)
         GBLB  &DIAGITF,&DIAGLIN,&DIAGSET,&DIAGTST,&FSW,&TEST
         GBLC  &CARRCON,&CSECT,&DSECT,&ITEM(2600)
         GBLC  &LABELS(2600),&LBL(100),&NRENTSX
         ORG   &NRENTSX
         DC    FL1'&NRENTS'
         ORG
&NRENTS  SETA  0
B&SYSNDX EQU   *
&NRENTSX SETC  'B&SYSNDX'
         MEND
           MACRO
&NAME    LABEL &LABEL1,&LABEL2,&LABEL3,&LABEL4,&LABEL5,&LABEL6,        C
               &LABEL7,&LABEL8
.*                                 THIS MACRO ALLOWS LABELS TO
.*                                 BE SPECIFIED FOR A GIVEN LINE. THE
.*                                 LABELS SHOULD BE ENCLOSED IN QUOTA-
.*                                 TION MARKS. THE COLUMN AND LINE END
.*                                 CONTROLS WILL BE INSERTED BY THE
.*                                 MACRO. OMITTED OPERANDS MEAN NO
.*                                 LABEL REQUIRED FOR RESPECTIVE
.*                                 COLUMN.
         GBLA  &BITS(2600),&DB,&DT,&INITIAL
         GBLA  &ITEMITR,&ITEMFST(20),&ITEMNBR,&ITEMMDX
         GBLA  &ITEMNDX(2600),&ITEMXPT
         GBLA  &LABELNR,&LASTCC,&LB,&LBLCTR(100),&LPTR,&LT
         GBLA  &NRENTS,&SHIFT(2600)
         GBLB  &DIAGITF,&DIAGLIN,&DIAGSET,&DIAGTST,&FSW,&TEST
         GBLC  &CARRCON,&CSECT,&DSECT,&ITEM(2600)
         GBLC  &LABELS(2600),&LBL(100),&NRENTSX
         LCLC  &MARGIN,&TACK
         LCLC  &TEXT
         LCLA  &OP,&K,&START,&NRCHAR,&REMAIN
         AIF   (&INITIAL EQ 0).DIAGCLR
         AIF   (&DIAGTST EQ 0).DIAGCLR
         AIF   (&DIAGLIN EQ 1).DIAGCLR
         MNOTE '**NO LINE ASSOCIATED WITH PREVIOUS LABEL**'
***** THE FOLLOWING GENERATED FOR TEST PURPOSES *****
*        LINE
         LINE
.DIAGCLR ANOP
&DIAGSET SETB  0
&DIAGLIN SETB  0
&MARGIN  SETC  '*'
         AIF   ('&NAME' EQ '').LOOPOUT
&LPTR    SETA  &LPTR+1
&LBL(&LPTR) SETC '&NAME'
&LBLCTR(&LPTR) SETA &LABELNR+1
.LOOPOUT ANOP
&OP      SETA  &OP+1
&K       SETA  K'&SYSLIST(&OP)
         AIF (&K GE 2).NORM
&K       SETA  2
.NORM    ANOP
&START   SETA  2
         AIF (&OP LT N'&SYSLIST).NOTLAST
&MARGIN  SETC  '$'
.NOTLAST ANOP
&NRCHAR  SETA  8
&TACK    SETC  ''
.LOOPIN  ANOP
&REMAIN  SETA  &K-&START
         AIF (&REMAIN GE 8).MORE
&TACK    SETC  '&MARGIN'
&NRCHAR  SETA  &REMAIN
.MORE    ANOP
&TEXT    SETC  ''
         AIF (&REMAIN EQ 0).ENDTEXT
&TEXT    SETC  '&SYSLIST(&OP)'(&START,&NRCHAR)
.ENDTEXT ANOP
&LABELNR SETA  &LABELNR+1
&LABELS(&LABELNR) SETC '&TEXT'.'&TACK'
&START   SETA  &START+8
         AIF ('&TACK' EQ '').LOOPIN
         AIF ('&TACK' EQ '*').LOOPOUT
         MEND
         MACRO
&NAME    ROUTINE &LOGITEM,&RNAME
         GBLA  &BITS(2600),&DB,&DT,&INITIAL
         GBLA  &ITEMITR,&ITEMFST(20),&ITEMNBR,&ITEMMDX
         GBLA  &ITEMNDX(2600),&ITEMXPT
         GBLA  &LABELNR,&LASTCC,&LB,&LBLCTR(100),&LPTR,&LT
         GBLA  &NRENTS,&SHIFT(2600)
         GBLB  &DIAGITF,&DIAGLIN,&DIAGSET,&DIAGTST,&FSW,&TEST
         GBLC  &CARRCON,&CSECT,&DSECT,&ITEM(2600)
         GBLC  &LABELS(2600),&LBL(100),&NRENTSX
         AIF   (&DIAGTST EQ 0).NOMSG
         AIF   (&INITIAL EQ 0).NOMSG
         AIF   (&DIAGLIN EQ 1).NOMSG
         MNOTE '**NO LINE ASSOCIATED WITH THIS ROUTINE**'
*****THE FOLLOWING GENERATED FOR TEST PURPOSES*****
*        LINE
         LINE
.NOMSG   ANOP
&NAME    DC    AL.12(&LOGITEM-&DSECT),XL.4'D'
         DC    AL2(&RNAME-&CSECT)
&NRENTS  SETA  &NRENTS+1
         MEND
         MACRO
         ITEMFIND &ARG,&ITFDIAG=
         GBLA  &BITS(2600),&DB,&DT,&INITIAL
         GBLA  &ITEMITR,&ITEMFST(20),&ITEMNBR,&ITEMMDX
         GBLA  &ITEMNDX(2600),&ITEMXPT
         GBLA  &LABELNR,&LASTCC,&LB,&LBLCTR(100),&LPTR,&LT
         GBLA  &NRENTS,&SHIFT(2600)
         GBLB  &DIAGITF,&DIAGLIN,&DIAGSET,&DIAGTST,&FSW,&TEST
         GBLC  &CARRCON,&CSECT,&DSECT,&ITEM(2600)
         GBLC  &LABELS(2600),&LBL(100),&NRENTSX
         LCLA  &A,&B,&X,&I
         LCLC  &C1,&C2,&S
         ACTR  100000
&ITEMXPT SETA  0                  INDICATE ITEM NOT FOUND.
         AIF   ('&ARG' NE '').NORM
         AIF   ('&ITFDIAG' EQ 'OFF'  OR  '&ITFDIAG' EQ 'ON').DIAGSET
  MNOTE 0,'ITEMFIND - OPERAND (&ITFDIAG) INVALID FOR ITFDIAG KEYWORD.'
         MEXIT
.DIAGSET ANOP
&DIAGITF SETB  ('&ITFDIAG' EQ 'ON')
         MEXIT
.NORM    AIF   (&ITEMITR GT 0).SORTED
         ITEMSORT
.SORTED  ANOP
&I       SETA  &ITEMITR           COMPUTED ITTERATION COUNT.
&X       SETA  &ITEMMDX           COMPUTED MAXIMUM INDEX.
&C1      SETC  '&ARG'             ISOLATE SEARCH ARGUMENT.
&C1      SETC  '&C1'.'       '(1,8-K'&C1) PAD TO FULL 8 CHARACTERS.
.SRCHUP  ANOP
&A       SETA  &A+&X              CURRENT TABLE SUBSCRIPT + INDEX.
&S       SETC  '+'
         AIF   (&A  GT &ITEMNBR  AND  NOT &DIAGITF).SRCHDN1
         AIF   (&A  LE &ITEMNBR).SRCH00
&C2      SETC  '*-OVER-*'
&I       SETA  &I-1               DECREMENT ITTERATION COUNTER.
&X       SETA  &X/2               HALVE INDEX VALUE.
 MNOTE *,'&ARG - &C2   ITRCTR = &I   PTR = &A&S &X'
         AIF   (&I GE 0).SRCHDWN  IF ITTERATION COUNT NOT EXPIRED.
.NOFIND  MNOTE  20,' ITEMFIND FAILED FOR NAME  &C1  '
         MEXIT
.SRCH00  ANOP
&I       SETA  &I-1               DECREMENT ITTERATION COUNTER.
         AIF   (&I LT 0).NOFIND   IF COUNT HAS GONE TO ZERO.
&X       SETA  &X/2               HALVE INDEX VALUE.
&B       SETA  &ITEMNDX(&A)       GET SUBSCRIPT FROM INDEX TABLE.
&C2      SETC  '&ITEM(&B)'.'       '(1,8-K'&ITEM(&B))  PAD COMPARAND.
         AIF   (NOT &DIAGITF).COMPARE
 MNOTE *,'&ARG - &C2   ITRCTR = &I   PTR = &A&S &X   POS = &B'
.COMPARE AIF   ('&C1' LT '&C2').SRCHDWN   ARGUMENT LOWER, MOVE DOWN.
         AIF   ('&C1' GT '&C2').SRCHUP    ARGUMENT HIGHER, MOVE UP.
&ITEMXPT SETA  &B                 FOUND. SET INDEX POINTER FOR RETURN.
&ITEMFST(&I+1)  SETA  &ITEMFST(&I+1)+1
         MEXIT
.SRCHDWN ANOP
&A       SETA  &A-&X              CURRENT POINTER MINUS INDEX VALUE.
&S       SETC  '-'
         AIF   (&A LE &ITEMNBR).SRCH00    IF WITHIN BOUNDS OF TABLE.
.SRCHDN1 ANOP
&I       SETA  &I-1               DECREMENT ITTERATION COUNTER.
&X       SETA  &X/2               HALVE INDEX VALUE.
         AIF   (&I GE 0).SRCHDWN  IF ITTERATION COUNT NOT EXPIRED.
         MNOTE  20,' ITEMFIND FAILED FOR NAME  &C1  '
         MEND
         MACRO
         ITEMSORT  &DUMMY
         GBLA  &BITS(2600),&DB,&DT,&INITIAL
         GBLA  &ITEMITR,&ITEMFST(20),&ITEMNBR,&ITEMMDX
         GBLA  &ITEMNDX(2600),&ITEMXPT
         GBLA  &LABELNR,&LASTCC,&LB,&LBLCTR(100),&LPTR,&LT
         GBLA  &NRENTS,&SHIFT(2600)
         GBLB  &DIAGITF,&DIAGLIN,&DIAGSET,&DIAGTST,&FSW,&TEST
         GBLC  &CARRCON,&CSECT,&DSECT,&ITEM(2600)
         GBLC  &LABELS(2600),&LBL(100),&NRENTSX
         LCLA  &R,&ZI,&I,&A1,&A2,&TEMP
         LCLB  &SR,&GOTO,&TB
         LCLB  &SW(3000)
         LCLC  &C1,&C2
         ACTR  100000
&A1      SETA  0
         AIF   (&ITEMITR EQ 0).LOOP0   TEST FOR RE-ENTRY.
 MNOTE   0,'ITEMSORT MACRO OCCURRS MORE THAN ONCE. TABLE NOT RESORTED.'
         MEXIT
.LOOP0   ANOP
&A1      SETA  &A1+1
&ITEMNDX(&A1) SETA &A1
         AIF   (&A1 LT &ITEMNBR).LOOP0
         AIF   (&ITEMNBR LT 2).MEXIT
&A1      SETA  &ITEMNBR/2         HALF OF TOTAL ENTRIES.
&A2      SETA  0
.LOOP1   ANOP
&A2      SETA  &A2+1
&SW(&A2) SETB  1                  SET FIRST HALF OF SWITCHES TO 1.
         AIF   (&A2 LT &A1).LOOP1
.LOOP2   ANOP
&A2      SETA  &A2+1
&SW(&A2) SETB  0                  SET SECOND HALF TO ZERO.
         AIF   (&A2 LT &ITEMNBR).LOOP2
&R       SETA  0                  SET R TO FIRST TRIAL ITEM.
&ZI      SETA  &ITEMNBR-1         SET ZI TO LAST ITEM.
&I       SETA  &ZI-1
.T3      ANOP
&SR      SETB  (&SW(&R+1))        GET FLAG, WHICH WAY TO GO?
&R       SETA  (&R*2)+1+&SR       R=2R+(1 OR 2)
         AIF   (&R LE &I).T3
.T4      ANOP
&R       SETA  (&R-1)/2           R=(R-1)/2
&SR      SETB  (&SW(&R+1))        GET SUBTREE SELECT FLAG.
         AIF   (&SR EQ 0).T7
         AIF   (&GOTO EQ 0).T5
.T7      ANOP
&A1      SETA  &ITEMNDX(&R+1)
&A2      SETA  &ITEMNDX(&ZI+1)
&C1      SETC  '&ITEM(&A1)'.'       '(1,8-K'&ITEM(&A1))
&C2      SETC  '&ITEM(&A2)'.'       '(1,8-K'&ITEM(&A2))
         AIF   ('&C1' LT '&C2').T8
.T9      ANOP
&TEMP    SETA  &ITEMNDX(&R+1)     Z(R) TO TEMP.
&TB      SETB  (&SW(&R+1))
&ITEMNDX(&R+1) SETA &ITEMNDX(&ZI+1)    Z(I) TO Z(R)
&SW(&R+1) SETB (&SW(&ZI+1))
&ITEMNDX(&ZI+1) SETA &TEMP        TEMP TO Z(I)
&SW(&ZI+1) SETB (&TB)
&SR      SETB  (&SR EQ 0)
&SW(&R+1) SETB (&SR)
.T8      AIF   (&R GT 0).T4
&GOTO    SETB  1                  SET 'GO TO' T7
&ZI      SETA  &ZI-1
&I       SETA  &I-1
         AIF   (&I GE 0).T3
.MEXIT   ANOP
&ITEMITR SETA 1
&ITEMMDX SETA 1
.ITRLOOP ANOP
&ITEMITR SETA &ITEMITR+1
&ITEMMDX SETA &ITEMMDX+&ITEMMDX
         AIF  (&ITEMMDX LT &ITEMNBR).ITRLOOP
&ITEMITR SETA &ITEMITR-1
&ITEMMDX SETA &ITEMMDX/2
&A1      SETA &ITEMNBR
&A2      SETA &ITEMMDX
&TEMP    SETA &ITEMITR
 MNOTE *,' ITEMS = &A1, MAX INDEX = &A2, ITTERATION COUNT = &TEMP'
         MEXIT
.T5      ANOP
&TEMP    SETA  &ITEMNDX(&R+1)     Z(R) TO TEMP.
&TB      SETB  (&SW(&R+1))
&ITEMNDX(&R+1) SETA &ITEMNDX(&ZI+1)    Z(I) TO Z(R)
&SW(&R+1) SETB (&SW(&ZI+1))
&ITEMNDX(&ZI+1) SETA &TEMP        TEMP TO Z(I)
&SW(&ZI+1) SETB (&TB)
&SR      SETB  (&SR EQ 0)
&SW(&R+1) SETB (&SR)
         AGO   .T3
         MEND
         MACRO
         LSTART ,
.*                            THIS MACRO IS ISSUED WHEN THE LABEL AREA
.*                                 OF THE TABLE IS TO BEGIN.
         GBLA  &BITS(2600),&DB,&DT,&INITIAL
         GBLA  &ITEMITR,&ITEMFST(20),&ITEMNBR,&ITEMMDX
         GBLA  &ITEMNDX(2600),&ITEMXPT
         GBLA  &LABELNR,&LASTCC,&LB,&LBLCTR(100),&LPTR,&LT
         GBLA  &NRENTS,&SHIFT(2600)
         GBLB  &DIAGITF,&DIAGLIN,&DIAGSET,&DIAGTST,&FSW,&TEST
         GBLC  &CARRCON,&CSECT,&DSECT,&ITEM(2600)
         GBLC  &LABELS(2600),&LBL(100),&NRENTSX
         LCLA  &NDX,&CTR
         ACTR  500000
         AIF   (&DIAGTST EQ 0).NODIAG
         AIF   (&DIAGSET EQ 0).NODIAG
         MNOTE '**NO LABEL ASSOCIATED WITH LAST SET**'
***** THE FOLLOWING GENERATED FOR TEST PURPOSES *****
*        LABEL '%%%%%%%%%%%%%%%%%%%%%%%%%%%%%%%%%%%%%%%%%%%%%%%%'