         SPACE 2
*  LINE MACRO     LINE MACRO     LINE MACRO     LINE MACRO            *
         MACRO
&NAME    LINE  &DATA,&LABEL,&SKIP=
.*                            THIS MACRO ESTABLISHES THE MARGINS OR
.*                                 COLUMN SETTINGS FOR EACH LINE. IT
.*                                 GENERATES NECESSARY CARRIAGE CONTROL
.*                                 ENTRIES. LASTLY IT DETERMINES THE
.*                                 NUMBER OF ENTRIES ASSOCIATED WITH
.*                                 THE PREVIOUS LINE AND STORES THAT #
.*                                 INTO THE APPROPRIATE BYTE.
.*                            &DATA(1) - CHARACTER POSITION TO BEGIN
.*                                 DATA.
.*                            &DATA(2) - # OF SPACES BETWEEN SUCCESSIVE
.*                                 DATA COLUMN STARTING CHARACTERS.
.*                            &LABEL(1) - CHAR. POS. TO BEGIN LABELS.
.*                            &LABEL(2) - # SPACES BETWEEN LINE'S LABEL
.*                                 STARTING CHARACTERS.
.*                            &SKIP= - # OF LINES TO ADVANCE CARRIAGE
.*                                 TO BEGIN NEXT PRINTED LINE.
.*                            NEW ENTRIES ARE GENERATED ONLY WHEN
.*                                 NECESSARY. OMISSION OF ITEMS MEANS
.*                                 THEY HAVE NOT CHANGED SINCE PREVIOUS
.*                                 SETTINGS. A LINE MACRO IS REQUIRED
.*                                 FOR EACH PRINTED LINE. IF NO SETTING
.*                                 CHANGES ARE REQUIRED ALL OPERANDS
.*                                 ARE OMITTED IN WHICH CASE ONLY THE
.*                                 # OF ENTRIES FOR THE PREVIOUS LINE
.*                                 IS COMPUTED. THIS MACRO MUST BE THE
.*                                 FIRST MACRO INSTRUCTION ISSUED FOR
.*                                 THE SUBJECT LINE
         GBLA  &DB,&DT,&LB,&LT,&NRENTS
         GBLA  &LASTCC,&INITIAL
         GBLC  &NRENTSX
         GBLC  &CARRCON
         GBLB  &TEST
         LCLA  &S
&NAME    DS    0C
         AIF   (&INITIAL EQ 0).FIRSTLN
         LINEND
         AGO   .NTFIRST
.FIRSTLN ANOP
&NRENTSX SETC  'N&SYSNDX'
&INITIAL SETA  1
N&SYSNDX EQU   *
.NTFIRST ANOP
         DC    AL1(0)
         AIF   ('&DATA(1)' EQ '').CKDTABS
         AIF   (&DATA(1) EQ &DB).CKDTABS
&DB      SETA  &DATA(1)
         AGO   .AA
.CKDTABS AIF   ('&DATA(2)' EQ '').NCDATA
         AIF   (&DATA(2) EQ &DT).NCDATA
         AGO   .CC
.AA      AIF   ('&DATA(2)' EQ '').BB
         AIF   (&DATA(2) EQ &DT).BB
.CC      ANOP
&DT      SETA  &DATA(2)
.BB      DC    XL2'FFFE'
         DC    FL1'&DB'
         DC    FL1'&DT'
&NRENTS  SETA  &NRENTS+1
.NCDATA  ANOP
         AIF   ('&LABEL(1)' EQ '').CKLTABS
         AIF   (&LABEL(1) EQ &LB).CKLTABS
&LB      SETA  &LABEL(1)
         AGO   .AAA
.CKLTABS AIF   ('&LABEL(2)' EQ '').NCLABEL
         AIF   (&LABEL(2) EQ &LT).NCLABEL
         AGO   .CCC
.AAA     AIF   ('&LABEL(2)' EQ '').BBB
         AIF   (&LABEL(2) EQ &LT).BBB
.CCC     ANOP
&LT      SETA  &LABEL(2)
.BBB     DC    XL2'FFFF'
         DC    FL1'&LB'
         DC    FL1'&LT'
&NRENTS  SETA  &NRENTS+1
.NCLABEL ANOP
         AIF   ('&SKIP' NE '').CONT
         AIF   (&TEST EQ 0).NOCHANG
&S       SETA  &LASTCC
         AGO   .DEFAULT
.CONT    ANOP
         AIF   (&TEST EQ 0).AB
&S       SETA  &SKIP
.DEFAULT ANOP
         ORG   &CARRCON+3
         DC    AL.3(0),AL.2(&S),AL.3(1)
         ORG
&LASTCC  SETA  &S
&TEST    SETB  0
         AGO   .DD
.AB      AIF   (&SKIP EQ &LASTCC).NOCHANG
A&SYSNDX DC    XL2'FFFB'
         DC    AL.3(0),AL.2(&SKIP),AL.3(1)
         DC    FL1'9'
&LASTCC  SETA  &SKIP
&TEST    SETB  1
&CARRCON SETC  'A&SYSNDX'
&NRENTS  SETA  &NRENTS+1
.DD      ANOP
.NOCHANG ANOP
         MEND
         EJECT
         SPACE 2
*  ROUTINE MACRO     ROUTINE MACRO     ROUTINE MACRO     ROUTINE MACRO*
         MACRO
&NAME    ROUTINE &LOGITEM,&RNAME
         GBLC  &DSECT,&CSECT
         GBLC  &ITEM(1000)
         GBLA  &SHIFT(1000),&ITEMNBR
         GBLA  &NRENTS
         LCLA  &ISHIFT,&NDX
.LOOP    ANOP
&NDX     SETA  &NDX+1
         AIF   ('&ITEM(&NDX)' EQ '&LOGITEM').FOUND
         AIF   (&NDX LT &ITEMNBR).LOOP
         MNOTE *,'LOG ITEM NOT DEFINED'
         MEXIT
.FOUND   ANOP
&ISHIFT  SETA  &SHIFT(&NDX)
&NAME    DC    AL.12(&LOGITEM-&DSECT),XL.4'D'
         DC    AL.4(&ISHIFT),AL.12(&RNAME-&CSECT)
&NRENTS  SETA  &NRENTS+1
         MEND
*  DSGEN MACRO     DSGEN MACRO     DSGEN MACRO     DSGEN MACRO        *
         SPACE 2
         MACRO
&NAME    DSGEN &X1,&X2,&X3,&X4,&X5,&X6,&X7,&X8,&X9,&X10,&X11,&X12,&X13,X
               &X14,&X15,&X16,&X17,&X18,&X19,&X20,&X21,&X22,&X23,&X24, X
               &X25,&X26,&X27,&X28,&X29,&X30,&X31,&X32
.*                            THIS MACRO GENERATES ONE DSECT WORD
.*                                 FORMATTED FOR THE SUBJECT LOG RECORD
.*                                 EACH OPERAND HAS TWO SUB LISTS. THE
.*                                 FIRST IS THE NAME OF THE LOG ITEM
.*                                 WHILE THE SECOND IS THE # OF BITS TO
.*                                 ALLOCATE FOR THIS ITEM. ITEMS MUST
.*                                 BE DEFINED CONTIGUOUSLY WITHOUT GAPS
.*                                 UNUSED BIT GROUPS MUST BE GIVEN
.*                                 DUMMY NAMES. THE NAMES PROVIDED FOR
.*                                 THE LOG ITEMS MAY THEN BE USED IN
.*                                 THE CONVERSION MACRO INSTRUCTIONS.
         GBLC &ITEM(1000)
         GBLA &ITEMNBR,&BITS(1000),&SHIFT(1000)
         LCLC  &SYMBOL
         LCLA  &OP,&COUNT,&BYTE
.LOOP    ANOP
&OP      SETA  &OP+1
&ITEMNBR SETA  &ITEMNBR+1
&SYMBOL  SETC  '&SYSLIST(&OP,1)'
         AIF   ('&SYSLIST(&OP,2)' NE '').OK1
         MNOTE *,'NULL BIT COUNT FIELD'
         MEXIT
.OK1     ANOP
         AIF   ('&SYMBOL' NE '').OK
         MNOTE 'LOG ITEM SYMBOL NOT PROVIDED'
         AGO   .CNT
.OK      ANOP
         AIF   ('&SYMBOL'(1,1) EQ '''').CNT                *TEMP*
&SYMBOL  EQU   *+&BYTE
&ITEM(&ITEMNBR)  SETC '&SYSLIST(&OP,1)'
&BITS(&ITEMNBR) SETA &SYSLIST(&OP,2)
&SHIFT(&ITEMNBR) SETA &COUNT-&BYTE*8
.CNT     ANOP
&COUNT   SETA  &COUNT+&SYSLIST(&OP,2)
&BYTE    SETA  &COUNT/8
         AIF (&OP LT N'&SYSLIST).LOOP
         AIF   (&COUNT NE 32).NOT32
&NAME    DS    4C
         MEXIT
.NOT32   AIF   (&COUNT NE 64).ERR
&NAME    DS    8C
         MEXIT
.ERR     MNOTE '**BIT COUNT FIELDS DO NOT TOTAL 32 OR 64**'
         MEND
         MACRO
         LINEND
.*                            THIS MACRO IS USED ONLY BY THE LINE
.*                                 MACRO TO SET THE NUMBER OF ENTRIES
.*                                 ASSOCIATED WITH EACH LINE.
         GBLA  &NRENTS
         GBLC &NRENTSX
         ORG   &NRENTSX
         DC    FL1'&NRENTS'
         ORG
&NRENTS  SETA  0
B&SYSNDX EQU   *
&NRENTSX SETC  'B&SYSNDX'
         MEND
         SPACE 2
         EJECT
*  LABEL MACRO     LABEL MACRO     LABEL MACRO     LABEL MACRO        *
         SPACE 2
         MACRO
&NAME    LABEL &LABEL1,&LABEL2,&LABEL3,&LABEL4,&LABEL5,&LABEL6,        C
               &LABEL7,&LABEL8
.*                            THIS MACRO ALLOWS UP TO ACHT LABELS TO
.*                                 BE SPECIFIED FOR A GIVEN LINE. THE
.*                                 LABELS SHOULD BE ENCLOSED IN QUOTA-
.*                                 TION MARKS. THE COLUMN AND LINE END
.*                                 CONTROLS WILL BE INSERTED BY THE
.*                                 MACRO. OMITTED OPERANDS MEAN NO
.*                                 LABEL REQUIRED FOR RESPECTIVE
.*                                 COLUMN. THIS MACRO WILL ALSO ALERT
.*                                 THE PROGRAMMER TO EXACTLY WHERE THE
.*                                 TABLE MUST BE BROKEN IF NECESSARY
.*                                 TO AVOID EXCEEDING THE MAXIMUM LIMIT
         GBLC &LABELS(2000)
         GBLC  &LBL(100)
         GBLA  &LBLCTR(100)
         GBLA  &LABELNR
         GBLA  &NRENTS,&LPTR
         LCLC  &MARGIN,&TACK
         LCLC  &TEXT
         LCLA  &OP,&K,&START,&NRCHAR,&REMAIN
&MARGIN  SETC  '*'
         AIF   ('&NAME' EQ '').LOOPOUT
&LPTR    SETA  &LPTR+1
&LBL(&LPTR) SETC '&NAME'
&LBLCTR(&LPTR) SETA &LABELNR+1
.LOOPOUT ANOP
&OP      SETA  &OP+1
&K       SETA  K'&SYSLIST(&OP)
         AIF (&K GE 2).NORM
&K       SETA  2
.NORM    ANOP
&START   SETA  2
         AIF (&OP LT N'&SYSLIST).NOTLAST
&MARGIN  SETC  '$'
.NOTLAST ANOP
&NRCHAR  SETA  8
&TACK    SETC  ''
.LOOPIN  ANOP
&REMAIN  SETA  &K-&START
         AIF (&REMAIN GE 8).MORE
&TACK    SETC  '&MARGIN'
&NRCHAR  SETA  &REMAIN
.MORE    ANOP
&TEXT    SETC  ''
         AIF (&REMAIN EQ 0).ENDTEXT
&TEXT    SETC  '&SYSLIST(&OP)'(&START,&NRCHAR)
.ENDTEXT ANOP
&LABELNR SETA  &LABELNR+1
&LABELS(&LABELNR) SETC '&TEXT'.'&TACK'
&START   SETA  &START+8
         AIF ('&TACK' EQ '').LOOPIN
         AIF ('&TACK' EQ '*').LOOPOUT
         MEND
         SPACE 2
         MACRO
         LSTART
.*                            THIS MACRO IS ISSUED WHEN THE LABEL AREA
.*                                 OF THE TABLE IS TO BEGIN.
         GBLC &LABELS(2000)
         GBLA  &LABELNR
         GBLC  &LBL(100)
         GBLA  &LBLCTR(100)
         LCLA  &NDX,&CTR
         LINEND
&CTR     SETA  1
.LOOP    ANOP
&NDX     SETA  &NDX+1
         AIF   (&LBLCTR(&CTR) NE &NDX).NOLBL
&LBL(&CTR) DC  C'&LABELS(&NDX)'
&CTR     SETA  &CTR+1
         AGO   .LOOPCTL
.NOLBL   ANOP
         DC    C'&LABELS(&NDX)'
.LOOPCTL AIF   (&NDX LT &LABELNR).LOOP
         MEND
         SPACE 2
*  BIN MACRO     BIN MACRO     BIN MACRO     BIN MACRO     BIN MACRO  *
         SPACE 2
         MACRO
         BIN   &LOGITEM,&SKIP$OR
.*                                 &LOGITEM - NAME OF ITEM IN LOG
.*                                      RECORD DSECT
.*                                 &SKIP$OR - NBR OF SPACES TO SKIP ON
.*                                 MULTIPLE PRINT OR NBR OF SPACES
.*                                      TO BACK UP FROM COLUMN FOR
.*                                      START OF PRINTING. THE LETTER
.*                                      B PRECEEDS THE NUMBER (B5) IF
.*                                      THE LATTER IS DESIRED. OMISSION
.*                                      OF THIS OPERAND FORCES OPTION 2
.*                                      WITH BACKUP SPACING EQUAL TO
.*                                 THE NUMBER OF BITS IN THE ITEM
.*                                 DEFINITION (VIA MACRO 'DSGEN').
.*                            A LIMIT OF 15 BITS IS IMPOSED FOR THE
.*                                 TOTAL NUMBER OF BITS TO PRINT.
         GBLC &ITEM(1000)
         GBLA &ITEMNBR,&BITS(1000),&SHIFT(1000),&NRENTS
         GBLC  &DSECT
         LCLB  &B
         LCLA  &IBITS,&NDX,&ISHIFT,&K
         LCLA  &TEMP,&T
         LCLC  &S
.LOOP    ANOP
&NDX     SETA  &NDX+1
         AIF   ('&ITEM(&NDX)' EQ '&LOGITEM').FOUND
         AIF   (&NDX LT &ITEMNBR).LOOP
         MNOTE *,'YOU BLEW IT'
         ROUTINE DUM,SKIPPER
         MEXIT
.FOUND   ANOP
&ISHIFT  SETA  &SHIFT(&NDX)
&IBITS   SETA  &BITS(&NDX)
&T       SETA  &IBITS-1
&B       SETB  0
         AIF   ('&SKIP$OR' EQ '').BACKUP
&K       SETA  K'&SKIP$OR
&B       SETB  ('&SKIP$OR'(1,1) EQ 'B')
&S       SETC  '&SKIP$OR'(&B+1,&K-&B)
&T       SETA  &S
.BACKUP  ANOP
&NRENTS  SETA  &NRENTS+1
&TEMP    SETA  &ISHIFT
A&SYSNDX DC    AL.12(&LOGITEM-&DSECT),XL.4'&TEMP'
         AIF (&IBITS EQ 1 AND &B EQ 0).OUT
         ORG   A&SYSNDX
&B       SETB  1
         DC    AL.12(&LOGITEM-&DSECT),XL.4'C'
         DC    BL.1'&B',AL.7(&T),AL.4(&IBITS),FL.4'&ISHIFT'
.OUT     ANOP
         MEND
         EJECT
*  HEX MACRO     HEX MACRO     HEX MACRO    HEXN MACRO     HEX MACRO  *
         SPACE 2
         MACRO
         HEX   &LOGITEM,&SKIP$OR,&BYTES
.*                            THIS MACRO FACILITATES GENERATION OF THE
.*                                 TABLE ENTRIES SPECIFYING HEX TYPE
.*                                 CONVERSIONS.
.*                            &LOGITEM - NAME OF DATA ITEM TO BE
.*                                 CONVERTED
.*                            &SKIP$OR - NUMBER OF SPACES TO SKIP ON
.*                                 MULTIPLE PRINT OR NBR OF SPACES TO
.*                                 BACK UP FROM COLUMN FOR START OF
.*                                 PRINTING. THE LETTER B PRECEEDS THE
.*                                 NUMBER (B8) IF THE LATTER OPTION IS
.*                                 DESIRED. OMISSION OF THIS OPERAND
.*                                 FORCES OPTION 2 WITH BACKUP SPACING
.*                                 EQUAL TO THE NUMBER OF BYTES SPECI-
.*                                 FIED BY THE NEXT OPERAND (TWICE THIS
.*                                 NUMBER IF SUFFIX IS EXPLICITLY OR
.*                                 IMPLICITLY B).
.*                            &BYTES - NUMBER OF TOTAL INPUT BYTES TO
.*                                 PROCESS. THIS NUMBER IS SUFFIXED
.*                                 WITH AN L,R, OR B TO STIPULATE
.*                                 PRINTING OF THE LEFT HALF, RIGHT
.*                                 HALF, OR BOTH HALVES OF THE BYTE
.*                                 RESPECTIVELY. OMISSION OF THIS
.*                                 OPERAND DEFAULTS TO B WITH THE NUM-
.*                                 BER OF BYTES EQUAL TO THE ITEM LNGTH
.*                            A NEW ENTRY IS GENERATED ONLY WHEN NECES-
.*                                 SARY. THIS MACRO MUST BE THE FIRST
.*                                 MACRO INSTRUCTION ISSUED FOR THE
.*                                 SUBJECT LINE(S).
         GBLC &ITEM(1000),&DSECT
         GBLA &ITEMNBR,&BITS(1000),&SHIFT(1000),&NRENTS
         LCLB  &B
         LCLA  &IBITS,&NDX,&ISHIFT,&K,&T,&CODE,&BYTESP
         LCLC  &S,&LETTER
.LOOP    ANOP
&NDX     SETA  &NDX+1
         AIF   ('&ITEM(&NDX)' EQ '&LOGITEM').FOUND
         AIF   (&NDX LT &ITEMNBR).LOOP
         MNOTE *,'LOG ITEM NOT DEFINED'
         MEXIT
.FOUND   ANOP
&ISHIFT  SETA  &SHIFT(&NDX)
&IBITS   SETA  &BITS(&NDX)
&CODE    SETA  1
&K       SETA  K'&BYTES
         AIF   (&IBITS-(&IBITS/4)*4 EQ 0).OK
         MNOTE *,'BIT LENGTH SPECIFICATION INCONSISTENT WITH CONTROL'
         MEXIT
.OK      AIF   ('&BYTES' EQ '').USEDEFN
&LETTER  SETC  '&BYTES'(&K,1)
&S       SETC  '&BYTES'(1,&K-1)
&BYTESP  SETA  &S
         AIF   ('&LETTER' EQ 'B').BOTH
         AIF   (&ISHIFT EQ 0 OR &ISHIFT EQ 4).OK2
.ERR     MNOTE *,'DATA NOT ALLIGNED ON HEX OR BYTE BOUNDARY'
         MEXIT
.USEDEFN ANOP
&BYTESP  SETA  &IBITS/8
.BOTH    AIF   (&ISHIFT NE 0).ERR
&CODE    SETA  3
&T       SETA  &BYTESP*2-1
&S       SETC  '&T'
.OK2     AIF   (&ISHIFT EQ 0).L
&CODE    SETA  2
.L       ANOP
&B       SETB  1
         AIF   ('&SKIP$OR' EQ '').BACKUP
&K       SETA  K'&SKIP$OR
&B       SETB  ('&SKIP$OR'(1,1) EQ 'B')
&S       SETC  '&SKIP$OR'(&B+1,&K-&B)
.BACKUP  ANOP
&NRENTS  SETA  &NRENTS+1
         DC    AL.12(&LOGITEM-&DSECT),XL.4'A'
         DC    BL.1'&B',FL.7'&S',FL.4'&BYTESP',FL.4'&CODE'
.OUT     ANOP
         MEND
         MACRO
         SPECIAL  &ROUTINE,&PARAM,&SPACE=
.*                            THIS MACRO GENERATES A SPECIAL ROUTINE
.*                                 ENTRY TO BE PROCESSED BY THE SUM. M.
.*                            &ROUTINE - SYMBOL ON SPECIAL ROUTINE EWT.
.*                            &PARAM - AN 8 BIT BINARY REPRESENTATION
.*                                 TO OCCUPY THE 'MASK' FIELD BUT TO BE
.*                                 INTERPRETED AS AN ARGUMENT OF THE
.*                                 SPECIAL ROUTINE.
.*                            &SPACE - THE NUMBER OF 2BYTE COUNTERS TO
.*                                 ALLOCATE FOR REQUIRED PROCESSING.
         GBLC  &CSECT
         GBLA  &COUNTR
         LCLA  &ADD
         DC    AL1(128)
         DC    BL.8'&PARAM'
         DC    AL2(&ROUTINE-&CSECT)
         DC    AL2(&COUNTR)
&ADD     SETA  1
         AIF   ('&SPACE' EQ '').NORM
&ADD     SETA  &SPACE
.NORM    ANOP
&COUNTR  SETA  &COUNTR+&ADD
         MEND
         MACRO
         SUM   &LOGITEM,&MASK
.*                            THIS MACRO GENERATES A NORMAL EDIT ENTRY
.*                                 FOR PROCESSING BY THE SUMMARY MODULE
.*                            &LOGITEM - NAME OF DATA ITEM TO BE SUMMED
.*                            &MASK - BYTE MASK FOR BITS TO BE TESTED.
.*                                 THIS OPERAND SHOULD BE OMITTED FOR
.*                                 SINGLE BIT ITEMS IN WHICH CASE THE
.*                                 MASK WILL BE SET ACCORDING TO THE
.*                                 OFF BYTE BIT DISPLACEMENT OF THE
.*                                ITEM AS DEFINED BY THE MACRO 'DSGEN'
         GBLA  &COUNTR,&ITEMNBR,&BITS(1000),&SHIFT(1000)
         GBLC  &ITEM(1000),&DSECT
         LCLA  &IBITS,&NDX,&ISHIFT,&M,&BITNBR
.LOOP    ANOP
&NDX     SETA  &NDX+1
         AIF   ('&ITEM(&NDX)' EQ '&LOGITEM').FOUND
         AIF   (&NDX LT &ITEMNBR).LOOP
         MNOTE *,'LOGITEM NOT FOUND'
         MEXIT
.FOUND   ANOP
         DC    AL1(0)
&ISHIFT  SETA  &SHIFT(&NDX)
&IBITS   SETA  &BITS(&NDX)
         AIF   ('&MASK' EQ '').FORM
         DC    B'&MASK'
         AGO   .ITEM
.FORM    ANOP
&BITNBR  SETA  &ISHIFT-7
&BITNBR  SETA  0-&BITNBR
&M       SETA  1
.LOOP2   ANOP
         AIF   (&BITNBR EQ 0).GOTIT
&M       SETA  &M*2
&BITNBR  SETA  &BITNBR-1
         AGO   .LOOP2
.GOTIT   ANOP
         DC    AL1(&M)
.ITEM    DC    AL2(&LOGITEM-&DSECT)
         DC    AL2(&COUNTR)
&COUNTR  SETA  &COUNTR+1
         MEND
         GBLC  &DSECT,&CSECT
&CSECT   SETC  'IFCST008'
&DSECT   SETC  'X2715'
         TITLE 'IFCST008 - SUM MODULE - LINKNAME=IFCST008'
IFCST008 CSECT
         USING *,R9
         DC    A(ENTRIES)
         DC    A(PENTRY)
REG8     DS    F
SCSIZE   DC    H'1591'
*
*              DSGEN & DSECT FOR RECORD
*
X2715    DSECT
         DSGEN (KEY,16),(TSWS,16),(TID,8),(TDUM1,16),(TCHAR,8)
         DSGEN (DATE,32),(TIME,32)
         DSGEN (TDUM2,8),(TSER,24),(TMOD,16),(TDUM3,16)
         DSGEN (TCUA,16),(TSID,16)
*
*                   TABLE   DSGEN & DSECT
*
YDSECT   DSECT
         DSGEN (RECDATE,24),(RECTIME,32),(B0BIT0,1),(B0BIT1,1),        C
               (B0BIT2,1),(B0BIT3,1),(B0BIT4,1),(B0BIT5,1),(B0BIT6,1), C
               (B0BIT7,1)
         DSGEN (B1BIT0,1),(B1BIT1,1),(B1BIT2,1),(B1BIT3,1),            C
               (B1BIT4,1),(B1BIT5,1),(B1BIT6,1),(B1BIT7,1),            C
               (B2BIT0,1),(B2BIT1,1),(B2BIT2,1),(B2BIT3,1),            C
               (B2BIT4,1),(B2BIT5,1),(B2BIT6,1),(B2BIT7,1),            C
               (B3BIT0,1),(B3BIT1,1),(B3BIT2,1),(B3BIT3,1),            C
               (B3BIT4,1),(B3BIT5,1),(B3BIT6,1),(B3BIT7,1),(DUM5,8)
*
*              COUNTER DSGEN & CSECT
*
Y2715    DSECT
         DSGEN (DUM1,32),(FWDPTR,32)
         DSGEN (TOTALREC,16),(TYPE,8),(CHAN,8),(CUA,24),(YSER1,8)
         DSGEN (YSER2,16),(CPU,16),(SMSW,16),(XSWTCH,8),(DUM2,8)
         DS    6C
         DSGEN (DUM3,64)
         DSGEN (DUMM3,64)
*
*              DISK ADPT  COUNTERS  18 CNTRS  1 DUMMY
*
         DSGEN (DALOW,32),(DAHIGH,32)
         DSGEN (DATOTAL,16),(DB2BIT0,16),(DB2BIT1,16),(DB2BIT2,16)
         DSGEN (DB2BIT3,16),(DB2BIT4,16),(DB2BIT5,16),(DB2BIT6,16)
         DSGEN (DB2BIT7,16),(DB3BIT0,16),(DB3BIT1,16),(DB3BIT2,16)
         DSGEN (DB3BIT3,16),(DB3BIT4,16)
*
*              2790 ADPT           20 CNTRS
*
         DSGEN (MALOW,32),(MAHIGH,32)
         DSGEN (MATOTAL,16),(MB1BIT0,16),(MB1BIT1,16),(MB1BIT2,16)
         DSGEN (MB1BIT3,16),(MB1BIT4,16),(MB1BIT5,16),(MB1BIT6,16)
         DSGEN (MB1BIT7,16),(MB2BIT0,16),(MB2BIT1,16),(MB2BIT2,16)
         DSGEN (MB2BIT3,16),(MB2BIT4,16),(MB2BIT5,16),(MB2BIT6,16)
         DSGEN (MB2BIT7,16),(MB3BIT0,16),(MB3BIT1,16),(MB3BIT4,16)
         DSGEN (MB3BIT5,16),(MB3BIT6,16),(MB3BIT7,16),(MB3BIT2,16)
*
*              MPX SECTION    12 COUNTERS
*
         DSGEN (MPLODATE,32),(MPHIDATE,32)
         DSGEN (MPTOTAL,16),(PB3BIT0,16),(PB3BIT2,16),(PB3BIT3,16)
         DSGEN (PB3BIT5,16),(PB3BIT7,16),(PB3BIT1,16),(PB3BIT4,16)
*
*              2740AOPTER   SECTION  10 CTRS
*
         DSGEN (ADLODATE,32),(ADHIDATE,32)
         DSGEN (ADTOTAL,16),(AB2BIT3,16),(AB2BIT5,16),(AB2BIT6,16)
         DSGEN (AB2BIT4,16),(AB2BIT7,16)
*
*              BSC ADAPTER    28 CTRS
*
         DSGEN (BSLODATE,32),(BSHIDATE,32)
         DSGEN (BSTOTAL,16),(BB0BIT5,16),(BB0BIT6,16),(BB0BIT7,16)
         DSGEN (BB1BIT0,16),(BB1BIT3,16),(BB1BIT4,16),(BB1BIT5,16)
         DSGEN (BB1BIT6,16),(BB1BIT7,16),(BB2BIT3,16),(BB2BIT4,16)
         DSGEN (BB2BIT5,16),(BB2BIT6,16),(BB3BIT0,16),(BB3BIT1,16)
         DSGEN (BB3BIT2,16),(BB3BIT3,16),(BB3BIT4,16),(BB3BIT5,16)
         DSGEN (BB3BIT6,16),(BB3BIT7,16),(BB0BIT0,16),(BB0BIT1,16)
*
*              70 0  SPECIAL CODES    257 CTRS
*
*
*
         DSGEN (SPLODATE,32),(SPHIDATE,32)
         DSGEN (SPTOTAL,16),(SP70,16),(SP75,16),(SP78,16)
         DSGEN (SP79,16),(SP7A,16),(SP7X,16),(SP,16)
         DS    CL500
SPFFFF   DS    CL10
*
*              AREA STATIONS  1200 COUNTERS
*
         DSGEN (ASLODATE,32),(ASHIDATE,32)
         DSGEN (ASTOTAL,16),(ASF0,16),(ASF1,16),(AS,16)
         DS    CL2400
ASFFFF   DS    CL24
*
IFCST008 CSECT
*
         USING YDSECT,R2
*
*
R0       EQU   0
R1       EQU   1
R2       EQU   2
R3       EQU   3
R4       EQU   4
R5       EQU   5
R6       EQU   6
R7       EQU   7
R8       EQU   8
R9       EQU   9
R10      EQU   10
R11      EQU   11
R12      EQU   12
R13      EQU   13
R14      EQU   14
R15      EQU   15
*
*
*        SPECIAL ROUTINES FOR SUMMARY MODULE
*
LOOPER   LA    R2,L11(R2)               BUMP TO NXT ENTRY
         STM   R14,R12,L12(R13)         SAVE REGS
         CLI   L0(R2),HEXFF             DONE WITH TABLE
         BE    DONE                     YES-
         CLI   L7(R2),HEX80             IS IT AREA STATIONS
         BL    REGULAR                  BR-NO
         LA    R5,AREASTAT-L6           POINT TO NEXT TO DO
LOOPRTN  ST    R5,REG8                  PUT PTR INTO SAVE AREA
         B    RETURN                    RETURN
REGULAR  CLI   L7(R2),HEX70             TEST FOR SPECIAL ERRS
         BL    NOTSPEC                  BR-NO
         LA    R5,SPECERR-L6            SET TO DO PTR
         B     LOOPRTN
NOTSPEC  CLI   L7(R2),HEX4F             TEST FOR ILLEGAL CODE
         BH    LOOPER                   LOOP IF YES
         SR    R5,R5                    CLEAR REG
         IC    R5,L7(R2)                PICK UP CODE
         SRL   R5,L4                    DROP OFF UNUSED BITS
         SLL   R5,L2                    MULTI BY 4
         L     R5,ADCONS(R5)            PICK UP PROPER ADDRESS
         B     LOOPRTN
*
ADCONS   DC    A(DISKADPT-L6)           CODE=00
         DC    A(D2790ADP-L6)                10
         DC    A(MPXADPT-L6)                 20
         DC    A(ADPT2740-L6)                30
         DC    A(BSCADPT-L6)                 40
DONE     LA    R5,ALLDONE-L6
         B     LOOPRTN
XDATE    STM   R14,R12,L12(R13)         SAVE REGS
         CLC   RECDATE(L3),ZEROS        IS INPUT DATE 0'S
         BE    ADDONE                   BR-YES
         CLC   L1(R3,R3),ZEROS          IS LOW DATE FILLED IN
         BNE   CHKLOW                   BR-YES
         MVC   L1(L3,R3),RECDATE        PUT IN DATE
CHKLOW   CLC   L1(L3,R3),RECDATE        IS LOW DATE LOWER THAN REC
         BNH   CHKHI                    BR-YES
         MVC   L1(L3,R3),RECDATE        PUT IN LOWER DATE
CHKHI    CLC   L5(L3,R3),RECDATE        IS HI DATE HGHR THAN REC
         BNL   ADDONE                   BR-YES
         MVC   L5(L3,R3),RECDATE        PUT IN HI DATE
ADDONE   LH    R5,L8(R3)                ADD
         LA    R5,L1(R5)                    ONE TO
         STH   R5,L8(R3)                          COUNTER
         B     RETURN                   RETURN
*
*              SPECIAL ERRORS  70-75
*
DO7075   STM   R14,R12,L12(R13)
         CLI   L7(R2),HEX70             IS IT CODE 70
         BE    ADD70                    BR-YES
         CLI   L7(R2),HEX75             IS IT CODE 75
         BL    ADD7174                  BR CODES 71-74
         LR    R5,R3                    SET COUNTER POINTER
         BE    ADD75
         CLI   L7(R2),HEX78             TEST CODE FOR 78
         BL    ADD7X                    BR CODES 76 77
         BE    ADD78                    BR CODES 78
         CLI   L7(R2),HEX7A             TEST CODE FOR 7A
         BL    ADD79                    BR CODES 79
         BE    ADD7A                    BR CODES 7A
ADD7X    LA    R5,L2(R5)                BUMP POINTER TO COUNTER
ADD7A    LA    R5,L2(R5)
ADD79    LA    R5,L2(R5)
ADD78    LA    R5,L2(R5)
ADD75    LA    R5,L2(R5)
         B     ADDER                    BR-TO ADD 1
ADD70    LR    R5,R3                    POINT TO 1ST CTR
         B     ADDER                    BR-TO ADD
ADD7174  LA    R5,L12(R3)               BUMP UP TO 71-74 CNTRS
         LA    R7,L50                   # OF AREA STATIONS
ADD7174A CLI   L0(R5),HEXFF             IS AREA FREE
         BE    ADD7174B                 YES
         CLC   L1(L1,R5),L8(R2)         AREA STA EQUAL
         BE    ADD7174C
         LA    R5,L10(R5)               BUMP TO NXT CTRS
         BCT   R7,ADD7174A              LOOP
         B     RETURN
ADD7174B MVI   L0(R5),HEX00             SET TO ZERO
         MVC   L1(L1,R5),L8(R2)         MOVE IN AREA CODE
ADD7174C IC    R8,L7(R2)
         SLL   R8,L28                   PICK UP AREA STA
         SRL   R8,L27                   DROP OFF HIGHER 4 BITS X BY 2
         AR    R5,R8                    COMPUTE CNTR TO ADD TO
ADDER    LH    R6,L0(R5)                ADD
         LA    R6,L1(R6)                   ONE TO
         STH   R6,L0(R5)                        COUNTER
         B     RETURN                   RETURN
*
*
*
*
*
*
DOAREA   STM   R14,R12,L12(R13)
         CLI   L7(R2),HEXF0             IS IT F0
         BE    ADD70                    BR-YES ADD TO 1ST CTR
         CLI   L7(R2),HEXF1             IS IT F1
         BE    ADD75                    BR-YES ADD TO 2ND
         LA    R5,L4(R3)                SET PTR TO AREA STATIONS
         LA    R6,L100                  SET LOOP CTR
DOAREAA  CLI   L0(R5),HEXFF             IS CTRS FREE
         BE    DOAREAB                  BR-YES
         CLC   L0(L2,R5),L7(R2)         ARE AREA STATIONS EQUAL
         BE    DOAREAC                  BR-YES
         LA    R5,L24(R5)               BUMP TO NXT SET
         BCT   R6,DOAREAA               LOOP
         B     RETURN
DOAREAB  MVC   L0(L2,R5),L7(R2)         MOVE IN AREA STATION
DOAREAC  LH    R6,L2(R5)                ADD
         LA    R6,L1(R6)                    ONE TO
         STH   R6,L2(R5)                          CNTR
         LA    R5,L4(R5)                BUMP OVER TOTAL COUNTER
         SR    R8,R8
         IC    R8,L9(R2)                PICK UP ERROR CODE
         SRL   R8,L4                    DROP OFF LOW BITS
         CH    R8,H9                    CHK FOR 9
         BH    RETURN                   BR-HI
         SLL   R8,L1
         AR    R5,R8                    ADD TO 5 TO POINT TO CNTR
         B     ADDER                    ADD TO CRTR
*
*
*
*
*
*
SETUP    STM   R14,R12,L12(R13)         SAVE  REGS
         LA    R6,L4095                 TO FFFF IN FIRST SET
         CLI   L0(R3),HEXFF             TEST SET UP SWITCH
         BE    SETTABLE                 DONE
         MVI   L0(R3),HEXFF             SET SWITCH
         SH    R3,H30                   SET DSECT BASE
         USING Y2715,R3
         MVC   SPFFFF(L2),CHARFFFF
         MVC   ASFFFF(L2),CHARFFFF
         LA    R4,SP                    SET SPECIAL CNTRS
         LA    R5,L50                   AND  AREA STATION CTRS
         LA    R7,L10                   TO INDICATE EMPTY CNTRS
         BAL   R8,STOREFF
         LA    R4,AS
         LA    R5,L100
         LA    R7,L24
         BAL   R8,STOREFF
SETTABLE LA    R4,TABLE                 SET TABLE TO FFFF
         LA    R5,L234                  PRIOR TO BRINGING IN ENTRIES
         LA    R7,L2
         BAL   R8,STOREFF
*
         LA    R6,TABLE
         LR    R5,R2               PICK
         SH    R5,H2                   UP
         LH    R5,L0(R5)               REC SIZE
         SH    R5,H26              SUBTRACT REC SIZE
         SR    R4,R4
         D     R4,F35              GET NUMBER OF 35BYTE FLDS IN R5
         LTR   R5,R5               CHK FOR ZERO
         BZ    RETURN              BR-NONE TO DO
         LA    R4,L28(R2)          SET PTR TO ERROR SECTION
SETTBL01 MVC   DAYTIME(L7),L0(R4)  SAVE DATE & TIME
         LA    R4,L7(R4)           BUMP OVER DAY&TIME
         LA    R8,L7               LOOP CNTR
SETTBL02 CLC   L0(L4,R4),CHARFFFF  DUMMY ENTRY
         BE    SETTBL03            BR-YES
         CLC   L0(L4,R4),ZEROS     DUMMY ENTRY
         BE    SETTBL03            BR-YES
         MVC   L0(L7,R6),DAYTIME   MOVE DAY TIME
         MVC   L7(L4,R6),L0(R4)    MOVE ENTRY
         LA    R6,L11(R6)          BUMP OVER ENTRY
SETTBL03 LA    R4,L4(R4)           BUMP TO NXT ENTRY
         BCT   R8,SETTBL02         LOOP
         BCT   R5,SETTBL01         LOOP TILL ALL 35 BYTE ENTRY DONE
*
         LA    R4,TABLE-L11             SET PTR
SORTTBL1 LA    R4,L11(R4)               UP PTR A      TABLE SORT
         LA    R5,L11(R4)               UP PTR B TO A+11
         CR    R4,R6                    PTR A = PTR C---TABLE SORTED
         BE    RETURN                   BR-YES
SORTTBL2 CLC   L7(L1,R4),L7(R5)         COMPARE ENTRY CODES
         BL    SORTTBL3                 LOW NO SWAP
         BH    SWAP                     HI SWAP
         CLC   L0(L7,R4),L0(R5)         COMPARE DATES
         BNH   SORTTBL3                 BR-NO SWAP
SWAP     XC    L0(L11,R4),L0(R5)        SWAP
         XC    L0(L11,R5),L0(R4)           ENTRIES
         XC    L0(L11,R4),L0(R5)
SORTTBL3 LA    R5,L11(R5)               BUMP PTR B
         CR    R5,R6                    PTR B= A