         MACRO
&NAME    TPT   &A,&B
         LCLC  &X
&X       SETC  'L'''
&NAME    LA    1,&A
         AIF   ('&B' NE '').GENB
         LA    0,&X&A
         AGO   .TPT
.GENB    LA    0,&B
.TPT     TPUT  (1),(0),R
         MEND
         SPACE 5
         MACRO
&NAME    CLEAR &FIELD,&LEN,&TO=C' '
         LCLC  &L
&L       SETC  'L'''
         AIF (('&LEN' EQ '') OR ('&TO' NE '0')).L0
         XC    &FIELD.(&LEN.),&FIELD .CLEAR IT
         MEXIT
.L0      ANOP
&NAME    MVI   &FIELD,&TO               START TO CLEAR FIELD
         AIF ('&LEN' EQ '').L1
         MVC   &FIELD+1(&LEN-1),&FIELD .CLEAR IT
         MEXIT
.L1      MVC   &FIELD+1(&L&FIELD-1),&FIELD CLEAR IT
         MEND
