         MACRO
&NAME    CHKBUF
&NAME    TM    41(R4),X'10'        TEST FOR NO BUFFER INDICATOR
         BZ    *+28      EXIT IF NOT ON
         OC    44(2,R4),44(R4)     TEST IF VALID SOURCE IN LCB
         BZ    *+18      EXIT IF NOT VALID SOURCE
         SR    R1,R1     ZERO OUT R1
         IC    R1,NOBUFCNT         LOAD NO BUFFER COUNT
         LA    R1,1(R1)            INCREMENT COUNT
         STC   R1,NOBUFCNT         STORE UPDATED COUNT
         MEND
