         MACRO
&NAME    SCALL &SUBNAME,&ARGLIST
.*             AUTHOR.   DON HIGGINS.
.*             DATE.     11/09/70.
.*             REMARKS.  SHORT FORM OF IBM CALL MACRO WITH NO VL.
         AIF   (T'&ARGLIST EQ 'O').NOARG
&NAME    LA    1,=A&ARGLIST        LOAD ARGUMENT LIST ADDRESS
         L     15,=V(&SUBNAME)     LOAD SUBPROGRAM ENTRY ADDRESS
         BALR  14,15               BRANCH AND LINK
         MEXIT
.NOARG   ANOP
&NAME    L     15,=V(&SUBNAME)     LOAD SUBPROGRAM ENTRY ADDRESS
         BALR  14,15               BRANCH AND LINK
         MEND
