         MACRO
&NAME    SCAN  &AREA,&KEY
.*             AUTHOR.   DON HIGGINS.
.*             DATE.     09/10/70.
.*             REMARKS.  CALL SCAN TO FIND KEY IN AN AREA.
         LCLA  &LAREA,&LKEY
&LAREA   SETA  L'&AREA
&LKEY    SETA  K'&KEY-2
&NAME    DS    0H
         CNOP  0,4
         BAL   1,*+20
         DC    A(&AREA,&LAREA,0,&LKEY)
         LA    0,=C&KEY
         ST    0,8(1)
         L     15,=V(SCAN)
         BALR  14,15
         MEND
