*          DATA SET AM012300   AT LEVEL 004 AS OF 12/31/74
         MACRO
&NAME    SRFIPXXX &FIP=SR010000,&OPTIONS=
         LCLA  &N,&S
&NAME    SUBENTRY
&N       SETA  N'&OPTIONS
.LOOP    ANOP
&S       SETA  &S+1
         MVI   OPTION,&OPTIONS(&S)
         LA    R1,OPLIST
         L     R15,ADFIP
         BALR  R14,R15
         AIF   (&S LT &N).LOOP
         LA    R1,STRTLIST
         L     R15,ADFIP
         BALR  R14,R15
         DROP
         L     R13,4(R13)
         LM    R14,R12,12(R13)
         USING &NAME,R15
         MVC   0(6,R15),LOADBR15
LOADBR15 L     R15,ADFIP
         BR    R15
         EQUAL
ADFIP    DCWV  &FIP
OPLIST   DC    A(INITOP),X'80',AL3(OPTION)
STRTLIST DC    0A(0),X'80',AL3(STARTOP)
INITOP   DC    C'9'
OPTION   DC    C' '
STARTOP  DC    C'5'
         MEND
