         MACRO
&NAME    QWTO  &MSG                                               LBDMC
         LCLA  &MLEN                                              LBDMC
&MLEN    SETA  K'&MSG-2                                           LBDMC
&NAME    BAL   R1,QWTO&SYSNDX                                     LBDMC
         DC    C&MSG              MESSAGE TEXT                    LBDMC
QWTO&SYSNDX MVC   QDMLNG,=H'&MLEN' SET MESSAGE LENGTH             LBDMC
         ST    R1,QDMSGA                                          LBDMC
         L     R15,=V(DISPLAY)    PTR OF DISPLAY MODULE           LBDMC
         BALR  R14,R15            GO TO IT                        LBDMC
         MEND
