         MACRO
&NAME    ENABLE &KEY=ZERO,&MODE=PROB
&NAME    MODESET KEY=&KEY,MODE=&MODE
         MEND
