         MACRO
&NAME PGMSTART &ID
         GBLA  &PGMNO
         LCLA  &A1,&A2
         LCLC  &C1
&PGMNO   SETA  &PGMNO+1
         AIF   (&PGMNO NE 1).PGMGO
         SPACE 3
.PGMGO   ANOP
&NAME    CSECT
         USING &NAME,R15
         B     STRT&SYSNDX
         DC    AL1(SAVE&SYSNDX-*+1)
         DC    CL9'&NAME'
         DC    CL9'&SYSDATE'
         DC    CL6'&SYSTIME'
         AIF   (T'&ID EQ 'O').PGM01
&A1      SETA  K'&ID
&A2      SETA  1
         AIF   ('&ID'(1,1) NE '''').PGM02
&A1      SETA  &A1-2
&A2      SETA  2
.PGM02   ANOP
         AIF   (&A1 GT 8).PGM03
&C1      SETC  '&ID'(&A2,&A1)
         DC    CL&A1'&C1'
         AGO   .PGM01
.PGM03   ANOP
&C1      SETC  '&ID'(&A2,8)
         DC    CL8'&C1'
&A1      SETA  &A1-8
&A2      SETA  &A2+8
         AGO   .PGM02
.PGM01   ANOP
SAVE&SYSNDX DC 18A(0)
         SPACE
STRT&SYSNDX STM   R14,R12,12(R13)
         LA    R11,SAVE&SYSNDX
         ST    R11,8(R13)
         ST    R13,4(R11)
         LR    R13,R11
         LR    R11,R15
         DROP  R15
         USING &NAME,R11
         MEND
