         MACRO
&NAME    RELPAGE &SP=245,&REG=R4
&NAME    DISABLE KEY=ZERO,MODE=SUP
         FREEMAIN R,LV=4096,A=(&REG),SP=&SP
         MEND
