         MACRO
&NAME    SETUP &A,&L
&NAME    MVC   &A.(&L),&A-DMSID(R9)     MOVE SELECTED FIELD
         MEND
