         MACRO
&NAME    DMSMACRO &TYPE=DSECT
*****************************************
*                                       *
*                                       *
*        D M S  MACRO                   *
*                                       *
*                                       *
*****************************************
         SPACE
         LCLC  &TY
&TY      SETC  '&TYPE'
****************************************
*        GENERAL EQUATES                *
****************************************
         SPACE
         SPACE 3
***
*        GP-REGISTER EQUATES
***
         SPACE
PSAREG   EQU   0
R0       EQU   0
R1       EQU   1
R2       EQU   2
R3       EQU   3
R4       EQU   4
R5       EQU   5
R6       EQU   6
R7       EQU   7
R8       EQU   8
R9       EQU   9
R10      EQU   10                       -> SHARED CONSTANTS
DMSREG   EQU   10
R11      EQU   11                       PROGRAM BASE REGISTER
R12      EQU   12
R13      EQU   13
R14      EQU   14
R15      EQU   15
         SPACE 3
***
*        BIT DEFINITIONS
***
         SPACE
BIT0     EQU   128
BIT1     EQU   64
BIT2     EQU   32
BIT3     EQU   16
BIT4     EQU   8
BIT5     EQU   4
BIT6     EQU   2
BIT7     EQU   1
BLANK    EQU   64
ALLBIT   EQU   255
         EJECT
         AIF   ('&TY' EQ 'CSECT').CSECT
DMSCONST DSECT
         USING DMSCONST,DMSREG
         AGO   .CODE
.CSECT   ANOP
DMSCONST CSECT
         USING DMSCONST,DMSREG
.CODE    ANOP
DMSID    CSECTID DMSCONST
DMSLNGT  DC    AL4(DMSEND-DMSID)        LENGTH OF CSECT
PAGESIZE DC    AL4(4096)                PAGE SIZE PARAMETER
RETCODE  DC    F'0'                      RETURN-CODE FIELD
DMSRETCD EQU   RETCODE+3                SET FOR 1 BYTE RETURN CODE
DMSCDMS  DC    A(DMSCONST)              ADDRESS OF THIS CSECT
PGFIXECB DC    F'0'                     ECB FOR PAGE FIX REQUEST
DMSVADP  DC    AL4(0)                   ADDRESS OF CONST IN SPOOL 245
DMSRADP  DC    AL4(0)                   REAL -> OF PAGE IN SP 245
DMSFIXAD DC    F'0'                     ADDRESS OF CORE
SPID     EQU   245                      USE SUBPOOL 245
DMSFIXSZ DC    F'0'                     SPOOLID AND SIZE OF CORE
DMSPFTP  DC    F'0'                     POINTER TO PAGE FRAME TABLE
DMSPAGVT DC    F'0'                     POINTER TO PAGE VECTOR TABLE
DMSPAGMK DC    X'00FFF000'              MASK FOR RBN
DMSDISMK DC    X'00000FFF'              MASK FOR DISPLACEMENT
DMSMVSVS DC    AL4(0)                   SCP PP-SU'S SUPPORTED
         DS    0D
         USING PSA,PSAREG
DMSMFLIH LM    R0,R15,PSHRSAVE          LOAD REGISTERS
         LPSW  PPGMPSW                  LOAD PSW POINTING TO FLIH
         DROP  PSAREG
PGMNPSW  DC    1D'0'                    PGM NEW PSW
RESNPSW  DC    1D'0'                    RESTART NEW PSW
EXTNPSW  DC    1D'0'                    EXTERNAL NEW PSW
SVCNPSWD DC    1D'0'                    SVC NEW PSW
MCHNPSW  DC    1D'0'                     MACHINE HCK NEW PSW
IOINPSW  DC    1D'0'                    I/O NEW PSW
TIMEDATA DC    2D'0'                    TIMESTAMP AREA
DMSPGMW   DC   1D'0'                    PSW SAVE FOR PGM RECURSIONS
DMSPGMCD DC    2F'0'                    INTERRUPT CODE FOR RECURSIVE
         SPACE
*
*        HOOKS
*
         SPACE
DMSHOOK  EQU   *
DMSHKNOP BCR   0,0                      DSS NOPR INSTRUCTION
DMSHKSVC DC    AL1(10),AL1(HOOKSVC)
HOOKSVC  EQU   38                       VALUE OF A RESERVED SVC
         DS    0F
SIOHOOKI DC    XL4'AF050100'            GTF HOOK FOR SIO INSTR,
HOOKTAB  EQU   *                        START OF HOOKTABLE
SIOHOOK  DC    3AL4(0)                  INTRPT ADDRESS, HOOKINST -> ENT
DSPHOOK1 DC    3AL4(0)                  INTRPT ADDRESS, HOOKINST -> ENT
DSPHOOK2 DC    3AL4(0)                  INTRPT ADDRESS, HOOKINST -> ENT
DSPHOOK3 DC    3AL4(0)                  INTRPT ADDRESS, HOOKINST -> ENT
DSPHOOK4 DC    3AL4(0)                  INTRPT ADDRESS, HOOKINST -> ENT
DSPHOOK5 DC    3AL4(0)                  INTRPT ADDRESS, HOOKINST -> ENT
DSPHOOK6 DC    3AL4(0)                  INTRPT ADDRESS, HOOKINST -> ENT
VCPUHK   DC    3AL4(0)                  INTRPT ADDRESS, HOOKINST -> ENT
IOACRHK  DC    3AL4(0)                  INTRPT ADDRESS, HOOKINST -> ENT
RTMHOOK  DC    3AL4(0)                  INTRPT ADDRESS, HOOKINST -> ENT
STOPHOOK DC    3AL4(0)                  INTRPT ADDRESS, HOOKINST -> ENT
DUMYHOOK DC    3AL4(0)                  INTRPT ADDRESS, HOOKINST -> ENT
         SPACE 2
*****************************************
*                                       *
*  M V S  C O N F I G U R A T I O N     *
*                                       *
*****************************************
         SPACE
CONFIG   DS    0F
CONLOCK  DC    F'0'                     LOCKWORD FOR CON/DISCON.
HIMACH   DC    F'0'                     HIGHEST REAL STORAGE ADDRESS
CPUFLG   DC    AL1(0)                   MP / UP FLAG
CPUMP    EQU   128                      SYSTEM IS MULTIPROCESSOR
CPUUP    EQU   64                       SYSTEM IS UNI PROCESSOR
CPUNUM   DC    AL1(0)                   NUMBER OF CPU'S ON SYSTEM
CPUBLKS  DC    16F'0'                   -> TO A PAGE BLOCK PER CPU
DMSASCBP DC    F'0'                     -> OF MY ASCB
DMSTCBP  DC    F'0'                     -> OF MY TCB
DMSRBP   DC    F'0'                     -> OF MY RB
DMSCVTP  DC    F'0'                     -> TO CVT
PCCAVTP  DC    F'0'                     -> TO CPU VECTOR TABLE
DMSDSVP  DC    F'0'                     DSS VECTOR TABLE POINTER
         SPACE
STARTFL1 DC    AL1(0)              FLAGS
ENQDONE  EQU   128       ENQ HAS BEEN DONE
EDTONLY  EQU   64        ENQ COULD NOT BE DONE, ONLY EDIT MODE
STAEDONE EQU   32                       INDICATE STAE IS DONE
STAENT   EQU   16                       INDICATE STAE ENTERED
GETFAIL  EQU   8                        GETMAIN FAILED FOR 4096 BYTES
EOBUFFER EQU   4                        TEMPORARY WORK BIT
PSWSAVED EQU   2                        PSW'S HAVE BEEN SAVED
GTFENQ   EQU   1                        GTF ENQ IS DONE
STARTFL2 DC    AL1(0)                   SECOND FLAG BYTE
NODISP   EQU   128                      NO DISPATCHER EVENTS POSSIBLE
DSSSET   EQU   64                       DSS-FLAG IS SET
DMSPDONE EQU   16                       POST SRB HAS BEEN SCHEDULED
POSTFLAG EQU   8                        POST HAS BEEN ENTERED
BLSSECND EQU   4                        SECOND ENTRY WITH POST ACTIVE
STARTGO  EQU   2                        START OF DATA SAVE IF ON
STARTFL3 DC    AL1(0)                   THIRD FLAG BYTE
DMSSLOCK EQU   128                      SALLOC LOCK OBTAINED BY DMS
STARTFL4 DC    AL1(0)                   SALLOC LOCK OWNERS CPUID
         EJECT
****************************************
*        ROUTINES
****************************************
         SPACE
         DS    0D
DMMAIN   DC    CL8'DMSMAIN',VL4(DMSMAIN)     NAME AND ADDRESS
DMCONST  DC    CL8'DMSCONST',AL4(DMSCONST)   NAME AND ADDRESS
DMINP0   DC    CL8'DMSINP0',VL4(DMSINP0)     NAME AND ADDRESS
DMEDIT   DC    CL8'DMSEDIT',AL4(0)           NAME AND ADDRESS
DMLDC    DC    CL8'DMSLDC',VL4(DMSLDC)       NAME AND ADDRESS
DYNRTAB  DC    AL1(DMUSR-DMMNTR),AL3(-1) LENGTH OF TABLE ENTRY
*
*        FLAGS ON OFFSET 8
*
RLOADED  EQU   128                      ROUTINE HAS BEEN LOADED
RMOVED   EQU   64                       ROUTINE HAS BEEN MOVED TO FIXED
DMMNTR   DC    CL8'DMSMNTR',3AL4(0)     NAME, ADDRESS, SIZE, -> FIXED
DMUSR    DC    CL8' ',3AL4(0)            NAME, ADDRESS, SIZE, -> FIXED
DMUNT    DC    CL8'DMSUNT',3AL4(0)       NAME, ADDRESS, SIZE, -> FIXED
DMIOI    DC    CL8'DMSIOI',3AL4(0)      NAME, ADDRESS, SIZE, -> FIXED
DMSIO    DC    CL8'DMSSIO',3AL4(0)      NAME, ADDRESS, SIZE, -> FIXED
DMPGM    DC    CL8'DMSPGM',3AL4(0)      NAME, ADDRESS, SIZE, -> FIXED
DMPER    DC    CL8'DMSPER',3AL4(0)      NAME, ADDRESS, SIZE, -> FIXED
DMDAT    DC    CL8'DMSDAT',3AL4(0)      NAME, ADDRESS, SIZE, -> FIXED
DMMON     DC   CL8'DMSMON',3AL4(0)      NAME, ADDRESS, SIZE, -> FIXED
DMEXT    DC    CL8'DMSEXT',3AL4(0)      NAME, ADDRESS, SIZE, -> FIXED
DMSVC    DC    CL8'DMSSVC',3AL4(0)      NAME, ADDRESS, SIZE, -> FIXED
         SPACE
DMDSP    DC    CL8'DMSDSP',3AL4(0)      NAME, ADDRESS, SIZE, -> FIXED
DMMCH    DC    CL8'DMSMCH',3AL4(0)      NAME, ADDRESS, SIZE, -> FIXED
         DC    CL8' '                   END INDICATOR
         EJECT
****************************************
*         DMS   FUNCTION                *
****************************************
         SPACE
DMSFUNCT DC    X'00'
DMSEDT   EQU   128                      EDIT FUNCTION SELECTED
DMSMONIT EQU   64                       MONITOR FUNCTION SELECTED
DMSEOJ   EQU   32                       EOJ FUNCTION SELECTED
DMSSTOP  EQU   16                       STOP HAS BEEN ENTERED
DMSDEFLT EQU   8                        DEFAULT HAS BEEN SELECTED
DMSTEST  EQU   1                        TEST FUNCTION IS SELECTED
DMSTST   EQU   DMSTEST
         SPACE
DMSREAS1 DC    AL1(0)                   REASON CODE BYTE 1
DMSRECUR EQU   128                      DMS TERMINATED BECAUSE RECURSI
DMSABEND EQU   64                       ABEND CONDITION DETECTED
DMSPREC   EQU   32                      PGM CHECK IN DMS
DMSMREC   EQU   16                       MCH RECURSION IN DMS
SVCRECUR EQU   8                        SVC RECURSION
IOIRECUR EQU   4                        I/O RECURSION
CPUADDED EQU    2                       VCPU RTN ENTERED
CPUSTOPD EQU   1                         CPU HAS BEEN STOPPED
DMSREAS2 DC    AL1(0)                   REASON CODE BYTE 2
SYSOKHOK EQU   255                      ALL HOOKS WERE FOUND
SYSBDPSA EQU   128                      DMS USED PSA STORAGE NOT FREE
SYSBDSS1 EQU   64                       NO DSS VECTOR TABLE FOUND
SYSBDSIO EQU   32                       GTF SIO HOOK NOT FOUND
SYSBDSS2 EQU   16                       DSS HOOK NOT FOUND
SYSBDVCP EQU   8                        ACR HOOK NOT FOUND
SYSBDACR EQU   4                        I/O ACR HOOK NOT FOUND
SYSBDRTM EQU   2                        RTM HOOK NOT FOUND
SYSBDCPU EQU   1                        STOP CPU HOOK NOT FOUND
          DS    0F
PERASCB  DC    F'0'                     ASCB OF SELECTED ASID
PEREMASK DC    AL1(0)                   EVENT MASK (CREG 9 BIT 0-7)
          DC    AL1(0)                  BYTE NOT USED
PERGPMSK DC     AL2(0)                  REGISTER MASK (CREG 9 BIT 16-31
PERSTART DC     F'0'                    PER START ADDRESS (CREGISTER 10
PEREND    DC   F'0'                     PER END ADDRESS (CREG 11)
PERMODES DC    F'0'                     FIRST BYTE INDICATES MODE
*        X'80' PER IS ACTIVATED ON DSPCODE 1 (GLOBAL,SRB)
*        X'40' PER IS ACTIVATED ON DSPCODE 2 (WDIS)
*        X'20' PER IS ACTIVATED ON DSPCODE 3 (LOCAL,SRB)
*        X'10' PER IS ACTIVATED ON DSPCODE 4 (SVR,SRB)B)
*        X'08' PER IS ACTIVATED ON DSPCODE 5 (TASK,DIS))
*        X'04' PER IS ACTIVATED ON DSPCODE 6 (TASK,EXIT)
*        X'02' RESERVED
*        X'01' RESERVED
*        X'FF' PER IS ACTIVATED ON ALL DISPTCHERS
PERMODEF EQU   PERMODES+1               FLIH ACTIVATION FOR PER
*        X'40' PER IS ACTIVATED ON EXT FLIH
*        X'20' PER IS ACTIVATED ON SVC FLIH
*        X'10' MUST NOT BE ON (PGM FLIH)
*        X'08' PER IS ACTIVATED ON MCH FLIH
*        X'04' PER IS ACTIVATED ON IOI FLIH
*        X'01' PER IS ACTIVATED ON SIO
*        X'6D' PER IS ACTIVATED ON ALL FLIH'S EXCEPT PGM
MONEMASK DC    AL2(0)                   MONITOR MASK
DMSASID   DC   AL2(0)                   SELECTED ASID (ZERO=ALL)
DMSSELF1 DC    AL1(0)                   SELECTION FLAG BITS
SELASID   EQU   128                     ASID IS SELECTED
SELJOBN   EQU   64                       JOBNAME IS SELECTED
SELSTEPN EQU   32                       STEPNAME IS SELECTED
SELUNIT  EQU   16                       UNIT=ALL SPECIFIED
         DS    0F
DMSJOBN   DC   CL8' '                   JOBNAME FOR SELECTION
DMSSTEPN DC     CL16' '                  PROCEDURE + STEPNAME SELCTED
DMSSEQCT DC    F'0'                     RECORD COUNTER
DMSSEQWD DC    F'0'                     LOCKWORD FOR COUNTER SERIALIZAT
         EJECT
         SPACE
BUFECB   DC    F'0'                     BUFFER ECB
DMSFBUFF DC    F'0'                     -> TO FIRST BUFFER
DMSWRBUF DC    F'0'                     -> TO CURRENT ENBLD. BUFFER
DMSDISBF DC    F'0'                     -> TO CURRENT DISABLD. BUFFER
DMSBUFFW DC    F'0'                     LOCKWORD FOR BUFFERS
DMSLSTEV DC     F'0'                     NUMBER OF LOST EVENTS
BUFFWORK DC    6F'0'                    WORK SPACE FOR BUFFER CHECKIN
         SPACE
DMSBDFLT DC    F'8'                     BUFFER FEFAULT VALUE
DMSBALC  DC    F'0'                     NUMBER OF ALLOCATED BUFFERS
DMSMINBF DC    F'3'                     DMS MINIMUM BUFFER VALUE
DMSBWNTD DC    F'0'                     VALUE OF AMOUNT OF BUFFERS WTD
         SPACE
****************************************
*        MONITOR / EDIT FUNCTION        *
****************************************
         SPACE
EDTNAM   DC    CL3'EDT'                 EDIT NAME
DMSNAM    DC   CL3'DMS'                 DMS NAME
EXTEDT   EQU   *                        SAME NAME FOR EDIT
EXTMON   DC    CL3'EXT'                 NAME FOR ROUTINE
EXTMONID EQU   *
EXTEDTID DC    C'0'                     DEFAULT ROUTINE 0
SVCMON   EQU   *                        SAME NAME FOR MON AND EDT
SVCEDT   DC    CL3'SVC'                 NAME FOR SVC'S
SVCMONID EQU   *
SVCEDTID DC    C'0'                      DEFAULT IS RTN 0
PGMMON   EQU   *                        SAME NAME FOR MON AND EDT
PGMEDT   DC    CL3'PGM'
PGMMONID EQU   *
PGMEDTID DC    C'0'                     DEFAULT ROUTINE IS 0
MCHMON   EQU   *                        SAME NAME FOR BOTH
MCHEDT   DC    CL3'MCH'
MCHMONID EQU   *
MCHEDTID DC    C'0'                      DEFAULT ROUTINE IS 0
IOSMON   EQU   *                        USE SAME NAME AS FOR SIO
IOSEDT   DC    CL3'IOI'
IOSMONID EQU   *
IOSEDTID DC    C'0'                     DEFAULT ROUTINE NAME
SIOMON   EQU   *                        USE SAME NAME FOR EDT
SIOEDT   DC    CL3'SIO'
SIOMONID EQU   *
SIOEDTID DC    C'0'                      DEFAULT ROUTINE NAME
DSPMON   EQU   *
DSPEDT   DC    CL3'DSP'                 USE SAME NAME FOR BOTH
DSPMONID EQU   *
DSPEDTID DC    C'0'                      DEFAULT RTN IS 0
EXTINT   DC    AL2(-1)                  EXTALL IS DEFAULT
EXTOFF   EQU   0                        DONT MONITOR EXTERNALS
SVCINT   DC    32X'FF'                  DEFAULT IS ALL SVC'S
         EJECT
EXTRECID DC    C'1'                     DEFAULT RECORD IDENTIFIER
SVCRECID DC    C'2'                     RECORD IDENTIFIER
PGMRECID DC    C'3'                     DEFAULT RECORD IDENTIFIER
PERRECID DC    C'4'                     DEFAULT RECORD IDENTIFIER
DATRECID DC    C'5'                     RECORD ID FOR DAT ROUTINE
MONRECID DC    C'6'                     DEFAULT RECORD IDENTIFIER
MCHRECID DC    C'7'                     DEFAULT RECORD IDENTIFIER
IOIRECID DC    C'8'                     RECORD ID FOR IO ROUTINE
SIORECID DC    C'9'                     DEFAULT RECORD IDENTIFIER
DSPRECID DC    X'0A'                    DEFAULT RECORD IDENTIFIER
PGMINT   DC    32X'FF'                  DEFAULT IS ALL
MCHINT   DC    AL1(255)                  DEFAULT VALUE IS ALL
MCHALL   EQU   255
MCHOFF   EQU   0                        DONT MONITOR
IOSINT   DC    512X'FF'                 USE SAME TABLE FOR SIO AND I/O
SIOINT   DC    512X'FF'                  DEFAULT IS ALL UNITS
PCIINT   DC    AL1(0)                    NO PCI DEFAULT
PCIALL   EQU   255
PCIOFF   EQU   0
CCWNUM   DC    AL1(20)                  DEFAULT IS 20 CCW'S
CCWALL   EQU   255                       ALL CCW'S
CCWOFF   EQU   0
DATASFLG DC    AL1(DATASIOO)            DEFAULT FOR SIO IS OUTPUT
DATASIOO EQU   128                      MONITOR OUTPUT CMDS DATA
DATASIOI EQU   64                       MONITOR INPUT CMDS DATA
DATASIOL EQU   DATASIOO+DATASIOI        MONITOR IN- AND OUTPUT
DATASIOF EQU   32                       DONT MONITOR DATA
DATASCOD DC    32X'00'                  CODE TABLE FOR COMMANDS
DATASLNG DC    H'2048'                  DEFAULT DATA LENGTH TO BE SAVED
*                                       ON SIO EVENT
DATAIFLG DC    AL1(DATAIOI)             DEFAULT IS ALL INPUT
DATAIOO  EQU   128                      MONITOR OUTPUT CMDS DATA
DATAIOI  EQU   64                        MONITOR INPUT CMDS DATA
DATAIOL  EQU   DATAIOI+DATAIOO          MONITOR ALL CMDS DATA
DATAIOF  EQU   32                       DONT MONITOR DATA
DATASPEC EQU   16                       MONITOR AS SPECIFIED IN CODE
DATAICOD DC    32X'00'
CPUID    DC    AL2(-1)                 CPUALL DEFAULT
CPUALL   EQU   255
DMSWORK1 DS    D                        WORK AREA 1
DMSWORK2 DS    D                        WORK AREA 2
TITLETXT DC  CL64'DYNAMIC MONITOR SYSTEM (DMS) LEVEL 03.3'
DMSFLAG1 DC    AL1(0)
         SPACE
NOGO     EQU   128                      STOP PROCESS
CONSTASK EQU   64                       CURRENT TASK IS CONSOL STARTED
TESTINP  EQU   32                       CONTROL SYSIN INPUT
ENDPROC  EQU   16                       END PROCESS MUST BE DONE
         SPACE 2
***
*        ECB-POINTERS
***
         SPACE
DMSECBLS DS    0F                       ECB-LIST
DMSCECBP DS    0F
         DC    AL1(0)
DMSCECBA DC    AL3(0)                   -> COMMUNICATION ECB
         SPACE 3
          DS   0H
DMSTSTMK TM    0(R7),X'00'              IS BIT ON
DMSINTAB EQU    *
DMSTRTAB EQU    *
BIT0MASK DC    B'10000000'
BIT1MASK DC    B'01000000'
BIT2MASK DC    B'00100000'
BIT3MASK DC    B'00010000'
BIT4MASK DC    B'00001000'
BIT5MASK DC    B'00000100'
BIT6MASK DC    B'00000010'
BIT7MASK DC    B'00000001'
         EJECT
***
*        SELECTION PARAMETERS
***
         SPACE
PINDD    DC    CL8' '                                PROCESSED
POUTDD   DC    CL8' '                                PROCESSED
DMSSDATE DC    PL4'0'                   START DATE FOR EDIT STEP
DMSPDATE DC    PL4'99999'               STOP DATE  FOR EDIT STEP
DMSSTIME DC    A(0)                     START TIME FOR EDIT STEP
DMSPTIME DC    F'-1'                    STOP TIME  FOR EDIT STEP
DMSSRCRD DC    A(0)                     FIRST RECORD TO BE PROCESSED
DMSPRCRD DC    F'-1'                    LAST  RECORD TO BE PROCESSED
         EJECT
***
*        SHARED CONSTANTS FOR PRINTING
***
         SPACE
LINECNT  DC    A(64)                    LINES PER PAGE
PAGECNT  DC    A(00)                    CURRENT PAGE NUMBER
LINEREST DC    A(00)                    RESIDUAL LINES ON PAGE
         SPACE
PRTFLAG  DS    0AL1                     FLAG BYTE
PRTOPEN  EQU   128                      SYSPRINT OPENED
PRTCONS  EQU   64                       MESSAGES ALSO TO CONSOLE
PRTTSO   EQU   32                       TSO LIKE OUTPUT
PRTCONFO EQU   16                       LIST: FORCE MESSAGE TO CONSOLE
PRTCONGO EQU   8                        LIST: FORCE 'GO' TO CONSOLE
         SPACE
PRTADDR  DC    V(DMSPRT0)               -> PRINT ROUTINE
MSGADDR  DC    V(DMSMSG0)               -> MESSAGE ROUTINE
PRTDCBP  DC    A(0)                     -> PRINT DCB
EDTMODE  DC    AL1(0)                   I/O DATA EDIT MASK
NORM     EQU   128
BYTE     EQU   64
HEXA     EQU   32
USER     EQU   16
BASICMDE EQU   8                        IF ON, EDIT IN BASIC MODE
HEXEBC   EQU   4                        MODE EQUAL HEXEBC (3 LINES)  RE
EDTSTAT  DC    AL2(0)                   STATUS MASK FOR I/O EVENT
         EJECT
***
*        SHARED CONSTANTS FOR INPUT CONTROL
***
         SPACE
         DS    0F
INPFLAG  DS    0AL1(0)
         SPACE
INPCARD  EQU   128                      INPUT CARD AVAILABLE
INPPARM  EQU   64                       PARM PROCESSING IS ACTIVE
INPCRDIN EQU   32                       PROCESS CARD INPUT
INPCONS  EQU   16                       CONSOLE INPUT POSSIBLE
INPFIRST EQU   8                        FIRST KEYWORD CHECK
INPEOF   EQU   4                        END OF FILE ON  CARD INPUT
INPFIREC EQU   2                        FIRST EDIT RECORD VALIDATED
INPGO    EQU   1                        INDICATE GO KEYWORD          RN
INPADDR  DC    V(DMSINP0)               -> INPUT PROCESSING ROUTINE
INPDCBP  DC    A(0)                     -> INPUT DCB
DMSINBUF DS    80C                      INPUT BUFFER
         DS    0D
         EJECT
* THE OPTABLE CONTAINS AN INDICATOR FOR EACH COMMAND OF STATUS
* MODIFIERS AND CONTROL COMMANDS DEPENDING ON THE DEVICE TYPE.
* X 80 INDICATES TAPE
* X 40 INDICATES TELEPROCESSING
* X 20 INDICATES DIRECT ACCESS
* X 10 INDICATES DISPLAY
* X 08 INDICATES UNIT RECORD
* X 02 INDICATES UNIQUE DEVICE TESTING REQUIRED FOR 3211,2955, 3890,
*      1287 AND 1288
* X 01 INDICATES CONTROL COMMAND
* THE MASK IS TESTED AGAINST DEVICE TYPE. IF A BIT IS ON IN
* COMMON, THEN THE COMMAND IS EITHER A STATUS MODIFIER OR
* CONTROL COMMAND. THE LOW ORDER BIT IS THEN TESTED TO SEE WHICH
* IT IS.
         SPACE 3
*        DC    X -0-1-2-3-4-5-6-7-8-9-A-B-C-D-E-F      X --
OPTABLE  DS    0XL256
         DC    X'000A00F90000438B0042001900000081'     X 0-  78/06/27
         DC    X'000000A9000000990000000908004099'     X 1-  77/08/22
         DC    X'0000009B002000CB002000D9002000D1'     X 2-  78/06/27
         DC    X'0020009B002000990020009908000099'     X 3-  77/08/22
         DC    X'0000009B002000090020000900200000'     X 4-  77/08/22
         DC    X'00200091002000090000009B08000000'     X 5-  78/06/27
         DC    X'0000009B002000090020009900200000'     X 6-  78/06/27
         DC    X'0020009B002000090000009908000000'     X 7-  78/06/27
         DC    X'0000009B0000000A0000001900000000'     X 8-  78/06/27
         DC    X'00000899210000090000009900000000'     X 9-  77/08/22
         DC    X'0000009B002000090020009900200000'     X A-  77/08/22
         DC    X'0020089B212000090020009900000000'     X B-  77/08/22
         DC    X'00000099002000090020009900200000'     X C-  77/08/22
         DC    X'00200099412000090000009900000000'     X D-  77/08/22
         DC    X'00000099002000090020009900200000'     X E-  77/08/22
         DC    X'00200091412000090000009100000000'     X F-  77/08/22
EDTMASKR DS    8C                       256 X 3 BYTE MASK
         DS    0F
DMSCPSAL DC    AL4(PSDMSNMK+4-PSLPSW)   LENGTH OF DMS-PSA
DMSCPSA  DS    0D
         DC    444X'00'
         DS    0D
         DC    CL8'PSUSER'
DMSCUSR  DC    256X'00'                 USER DATA
DMSXMPST DC    F'0'                     COUNT OF ENTERING XMPOST
         DC    F'0'                     RESERVED
DMSRELS1 DC    2F'0'                    CVT PREFIX CONTENT
DMSSULEV DC    4F'0'                    SU-INSTALLED BIT MAP
DMSEDTB1 DC    AL1(0)                   EDIT FLAG BYTES
DMSFORMC EQU   128                      FORMAT DMSCONST IN EDIT
DMSFORMA EQU   64                       EDIT =ALL HAS BEEN SPECIFIED
DMSEDLOG EQU   32                       VALID SELECTION IN EDIT
         DC    AL3(0)                   RESERVED FOR FUTURE USE
DMSEDTSC DC    1D'0'                    START TIME OF DMS FOR EDIT
DMSEDTPC DC    1D'0'                    STOP  TIME OF DMS FOR EDIT
EREGBYTE DC    X'00'                    REGISTER FOR EDIT COMPARE MASK
ELENREG  DC    X'00'                    REGISTER FOR EDIT COMPARE (L)
ELENMASK DC    X'07'                    MASK FOR ELENREG
EREGFLAG DC    X'00'                    EDIT REGISTER FLAG
EREGON   EQU   128                      REGISTER EDIT SELECTED
ELENRON  EQU   64                       USE REGISTER AS LENGTH WITH
ELENMON  EQU   32                       THIS MASK
ESTARTON EQU   16                       START ADDRESS
ESTOPON  EQU   8                        END ADDRESS
EVALUEON EQU   4                        SPECIFIC VALUE CPRE ON
ERESVD   EQU   2                        RESERVED
ESTARTAD DC    F'0'                     COMPARE START ADDRESS
ESTOPAD  DC    F'0'                     COMPARE END ADDRESS
EVALUEC  DC    F'0'                     REGISTER VALUE COMPARAND
DMSAMPSW DC    1D'0'                    SETLOCK PSW ('250')
DMSALKSA DC    16F'0'                   SETLOCK REGSAVE
DMSAHLHI DC    F'0'                     SETLOCK HELD IBDICATOR (X'2F8')
DMSASUP1 DC    AL1(0)                   SUPER BYTE 1 SAVE
         DC    AL2(0)                   RESERVED
DMSUTYPE DC    AL1(DMSUTYPS+DMSUTYPI)   DEFAULT IS BOTH (ALL)
DMSUTYPS EQU   128                      SIO FOR UNIT TO BE SELECTED
DMSUTYPI EQU   64                       I/O FOR UNIT TO BE SELECTED
         DS    0D                       ALIGN TO DWORD BOUNDARY
DMSEND   EQU   *
         PRINT OFF
         EJECT
***
*        COMMAND INPUT BUFFER
***
               SPACE
CIB      DSECT                          MAPPING MACRO IEZCIB
         USING CIB,7
CIBNXT   DS    A                        ADDR OF NEXT CIB IN CHAIN
CIBVERB  DS    X .                      COMMAND VERB
         SPACE
CVSTART  EQU   X'04' .                  START VERB CODE
CVMODIFY EQU   X'44' .                  MODIFY VERB CODE
CVSTOP   EQU   X'40' .                  STOP VERB CODE
CVMOUNT  EQU   X'0C' .                  MOUNT VERB CODE
         SPACE
CIBLGTH  DS    AL1 .                    LENGTH OF CIB IN DW
CIBRSV1  DS    CL6 .                    RES.
CIBCID   DS    X .                      CONSOLE ID
CIBRSV2  DS    X .                      RES.
CIBCLGTH DS    H .                      LENGTH OF COMMAND IN BYTES
CIBCOM   DS    0C .                     COMMAND BUFFER
         DCBD  DSORG=PS,DEVD=DA
         USING IHADCB,R1
         PRINT ON
BUFFER   DSECT
BFRFLG    EQU   *
*         B'10000000'                   BUFFER IS FULL
*         B'00000000'                   BUFFER IS NOT FULL
BFRFULL   EQU   128                     BUFFER IS FULL
BFRNEXT   DS    AL4                     -> NEXT BUFFER IN CHAIN
BFRLNGT   DC   AL4(0)                   USED ONLY BY MONITOR
BFRSTART EQU   *                        REAL START OF BUFFER
         ORG   BUFFER+4095
BFREND   EQU   *                        REAL END OF BUFFER
CPUBLK   DSECT
BLKFLAG1 EQU   *                        FLAG BYTE OF THIS CPUBLOCK
BLKDMSV  DS    AL4                      -> TO DMSCONST
BLKRESLN DS    AL4                      RESIDUAL LENGTH OF BLOCK
         DS    0D
BLKBUFF  EQU   *                        START OF PHYSICAL BLOCK
BLKRLEN  DS    AL2                      RECORD LENGTH
         DS    AL2                      TWO BYTES CONTAINING ZEROES
BLKRID   DS    AL1                      RECORD IDENTIFIER
BLKSEQ   DS    AL3                      RECORD SEQUENCE NUMBER
BLKCLOCK DS    2AL4                     CLOCK VALUE OF THIS EVENT
BLKDICLK DS    2AL4                     DISPATCHER CLOCK VALUE
BLKCPUID DS    2AL4                     IDENTIFIER OF THE CPU
BLKPSW   DS    2AL4                     PSW OF THE INTERRUPT
BLKPSWCD EQU   BLKPSW+3                 INTRPT CODE WITHIN PSW
BLKJOBN  DS    2AL4                     JOBNAME OF CURRENT TASK OR
BLKDATA  EQU   *                        START OF DATAS
BLKASCB  EQU   BLKJOBN+0                ASCB AND
BLKTCB   EQU   BLKJOBN+4                TCB ADDRESS
         PRINT OFF
         IHAPSA
         EJECT
         PRINT ON
         ORG   PSA+X'500'
PSLPSW   DS    1D                       LOAD PSW AREA
PSCLOCK  DS    1D                       STORE CLOCK AREA
PDCLOCK  DS    1D                       STORE CLOCK FOR LAST DISP
PPGMFLIH DS    1D                       A LM AND A LPSW INSTR.
PPGMPSW  DS    1D                       PSW IS POINTING TO PGM FLIH
PSADMSF  EQU   *                        FLAG BYTE
*              B'10000000'              DMS IN CONTROL
*              B'00000000'              OS/VS IN CONTROL
*              B'01000000'              CONTROL REG. 1 HAS BEEN MOD
PSCPUBLK DS    AL4                      -> TO CPU-BLOCK
PSACONST DS    AL4                      -> TO DMSCONST
PREGSAVE DS    16AL4                    REGISTERS TO BE LOADED BEFORE
*                                       LPSW INSTRUCTION IS EXECUTED
PSHRSAVE DS    16AL4                    SHARED-SAVE AREA
PMCHSAVE DS    16AL4                    MCH SAVE AREA
PDATSAVE DS     16AL4                   REGSAVE FOR DATASAVE RTN
PRESSAVE DS    16AL4                    RESTART ENTRY SAVE AREA
PDISSAVE DS    4AL4                     DISCONNECT SAVE AREA
PSHRSAV3 DS    3AL4                     TEMP. SAVE AREA
PSCTRL1  DS    AL4                      SAVE AREA FOR CONTROL REG
          SPACE
PSDSPCDE DC    F'0'                     TYPE OF DISPATCHER EVENT
*        F'1'                           SRB DISPATCH
*        F'2'                           WAIT TASK DISPATCH
*        F'3'                           SUSPENDED SRB DISPATCH
*        F'4'                           LOCAL SUPERVISOR DISPATCH
*        F'5'                           TASK DISPATCH FROM DISPATCHER
*        F'6'                           TASK DISPATCH FROM EXIT
PSDMSCS0 DC    F'0'                     CONTROL REG 0 SAVE AREA
PSDMSCS1 DC    F'0'                     CONTROL REG 1 SAVE AREA
PSDMSCS2 DC    F'0'                     CONTROL REG 2 SAVE AREA
PSDMSCL0 DC    F'0'                     CONTROL REG 0 LOAD AREA
PSDMSCL1 DC    F'0'                     CONTROL REG 1 LOAD AREA
PSDMSCL2 DC    F'0'                     CONTROL REG 2 LOAD AREA
PSVCSA00 DS    12C                      SVC-PSW SAVE AREA FOR HOOK REST
PSDMSNMK DC    F'0'                     WORD TO SAVE PSW MASK
PSDMSTR1 EQU   PSDMSNMK+1               FIRST TRACE BYTE
FOOTRES  EQU   128                      RES  ENTRY ACTIVE
FOOTEXT  EQU   64                       EXT  ENTRY ACTIVE
FOOTSVC  EQU   32                       SVC  ENTRY ACTIVE
FOOTPGM  EQU   16                       PGM  ENTRY ACTIVE
FOOTMCH  EQU   8                        MCH  ENTRY ACTIVE
FOOTIOI  EQU   4                        IOI  ENTRY ACTIVE
FOOTDSP  EQU   2                        DSP  ENTRY ACTIVE
FOOTSIO  EQU   1                        SIO  ENTRY ACTIVE
PSDMSTR2 EQU   PSDMSNMK+2               SECOND TRACE BYTE
FOOTSAVE EQU   128                      SAVE RTN ENTERED
FOOTACR  EQU   64                       ACR  ENTRY ACTIVE
FOOTCPU  EQU   32                       CPU  ENTRY ACTIVE
FOOTRTM  EQU   16                       RTM  ENTRY ACTIVE