         MACRO
&NAME  PRINTER &ADDRESS,&CONSOLE=OFF
&NAME    LA    R1,&ADDRESS              -> PRINT LINE
         AIF   ('&CONSOLE' NE 'ON').PRINT1
         ICM   R1,8,BIT0MASK            INDICATE ALSO CONSOLE
.PRINT1  ANOP
         L     R15,PRTADDR              -> PRINT ROUTINE
         BALR  R14,R15                  PRINT LINE
         SPACE
         MEND
