* NOTES ON PATCHING THIS ABOMINATION:
*    'N=2' INDICATES UNIT-RECORD  'N=8' INDICATES GRAPHICS
*    'N=6' INDICATES TAPE DRIVES  'N=4' INDICATES DASD
*       'POS=' INDICATES WHAT THE BITS ARE SET LIKE IN THE UCB/UCBTYP
*      ***BE CAREFULL, THOUGH -- THE CRITERIA FOR SWITCHING
*      ***BETWEEN DIFFERENT TABLES (IE DIFFERENT 'N='S)
*      ***IS TOTALLY RANDOM (SO TO SPEAK)..ITS LOCATED AT THE
*      ***START OF EXECUTABLE MACRO STATEMENTS IN THE 'T' MACRO...
         SPACE 3
         MACRO
&NAME    Z     &E
         LCLA  &L1
&L1      SETA  5
         AIF   ('&E' EQ '').NONE
&NAME    DC    CL&L1'&E'
         MEXIT
.NONE    ANOP
         DC    CL&L1' '       FILLER
         MEND
         SPACE 3
         MACRO
         TAB   &N
         LCLA  &B
TABLES   CSECT
&B       SETA  &N
.CONT    ANOP
TAB&B    DC    256X'0'
         AIF   (&B EQ 10).MENDIT
&B       SETA  (&B+2)
         AGO   .CONT
.MENDIT  ANOP
         MEND
         SPACE 3
         MACRO
         T     &DEV,&ENG,&N=,&POS=
         GBLA  &NUM
         LCLA  &L1
         LCLA  &L2
         LCLA  &INDEX
         LCLA  &TAX
&L1      SETA  11
&L2      SETA  25
&TAX     SETA  (&N-1)
         AIF   ('&POS' EQ '1').STARTIT
         AIF   ('&POS' EQ '6' AND '&N' EQ '4').STARTIT
         AIF   ('&POS' EQ '2' AND '&N' EQ '8').STARTIT
&INDEX   SETA  (&NUM*(&L1+&L2))
&NUM     SETA  &NUM+1
         AGO   .CONTU
.STARTIT ANOP
&NUM     SETA  1
.CONTU   ANOP
         ORG   TAB&TAX+&INDEX
         DC    CL&L1'&DEV'
         DC    CL&L2&ENG
         ORG   TAB&N+X'&POS'
         DC    AL1(&NUM)
         ORG   TAB&N+256
         MEND
         EJECT
         TAB  2
TAB1     DC    1100X'0'
TAB3     DC    300X'0'
TAB5     DC    160X'0'
TAB7     DC    460X'0'
TAB9     DC    100X'0'
         T     2540,'CARD READER',N=2,POS=1
         T     2540,'CARD PUNCH',N=2,POS=2
         T     1442,'CARD READ PUNCH',N=2,POS=3
         T     2501,'CARD READER',N=2,POS=4
         T     2520,'CARD READ PUNCH',N=2,POS=5
         T     3505,'CARD READER',N=2,POS=6
         T     1403,'PRINTER',N=2,POS=8
         T     3211,'PRINTER',N=2,POS=9
         T     1443,'PRINTER',N=2,POS=A
         T     3203,'MODEL-4',N=2,POS=B
         T     3525,'CARD PUNCH',N=2,POS=C
         T     3800,'PRINTING SUBSYSTEM',N=2,POS=E
         T     2671,'PAPER TAPE READER',N=2,POS=10
         T     3890,'MAG.CHAR. READER',N=2,POS=16
         T     3886,'OPTICAL CHAR READER',N=2,POS=17
         T     2495,'TAPE CARTRIGE READER',N=2,POS=18
         T     1287,'OPTICAL READER',N=2,POS=1B
         T     1288,'OPTICAL PAGE READER',N=2,POS=1C
         T     1419,'MAG.CHARAC. READER (PCU)',N=2,POS=1D
         T     1419-1275,'OPTICAL CRD SORTER(SCU)',N=2,POS=1E
         T     1275,'MAG. CHAR. READER (PCU)',N=2,POS=1F
         T     1052,'CONSOLE PRINTER-KEYBOARD',N=2,POS=20
         T     3210,'CONSOLE PRINTER-KEYBOARD',N=2,POS=22
         T     3215,'CONSOLE PRINTER-KEYBOARD',N=2,POS=23
         T     3213,'PRINTER',N=2,POS=30
         T     7443,'MINIFLOPPY IMPL DISKETTE',N=2,POS=3D
         T     3851,'MASS STORAGE CNTL.',N=2,POS=42
         T     3540,'DISKETTE I/O UNIT',N=2,POS=44
         T     2400,'TAPE DRIVE',N=6,POS=1
         T     3400,'TAPE DRIVE',N=6,POS=3
         T     2305,'FIXED HD DASD - MODEL 1',N=4,POS=6
         T     2305,'FIXED HD DASD - MODEL 2',N=4,POS=7
         T     2314/2319,'DASD',N=4,POS=8
         T     3330,'MODEL 1 ',N=4,POS=9
         T     3340,'DISK STORAGE',N=4,POS=A
         T     3350,'DASD',N=4,POS=B
         T     3330,'MODEL II ',N=4,POS=D
         T     2250,'DISPLAY UNIT',N=8,POS=2
         T     2260,'GRAPHIC DISPLAY UNIT',N=8,POS=3
         T     1053,'PRINTER',N=8,POS=4
         T     3066,'SYSTEM CONSOLE',N=8,POS=8
         T     3277,'DISPLAY',N=8,POS=9
         T     3284,'PRINTER',N=8,POS=A
         T     3286,'PRINTER',N=8,POS=B
         T     3156,'DISPLAY CONSOLE',N=8,POS=C
         T     3036,'DISPLAY CONSOLE',N=8,POS=D
         T     3138,'DISPLAY CONSOLE',N=8,POS=E
         T     3148,'DISPLAY CONSOLE',N=8,POS=F
*
*        THE FOLLOWING TABLES ARE USED FOR COMMUNICATIONS DEVICES
*
         ORG   TAB9+100       SET UP LOCATION POINTER
SPECIAL  Z     ????
MODELA   Z     1050
         Z     1030
         Z     1050
         Z     83B3
         Z     TWX
         Z     WTTA
         Z
         Z     2260
MODELB   Z     1060
         Z
         Z
         Z     115A
MODELC   Z     2740C
MODELD   Z     2740
MODELE   Z     2741C
         Z
         Z
         Z
         Z
         Z
         Z
         Z
         Z     BSC1
MODELF   Z     2741P
         Z
         Z
         Z
         Z
         Z
         Z
         Z
         Z     BSC2
MODELG   Z     1050X
         Z
         Z
         Z
         Z
         Z
         Z
         Z
         Z     BSC3
MODELH   Z     2740X
TCUTAB   Z     2702
         Z     2701
         Z     2703
         Z     2955
         Z
         Z
         Z
         Z
         Z
         Z
         Z
         Z
         Z
         Z
         Z     5098
ADAPTAB  DC    CL28'IBM -- TYPE 1'
         DC    CL28'IBM -- TYPE2'
         DC    CL28'IBM -- TELEGRAPH'
         DC    CL28'TELEGRAPH -- TYPE 1'
         DC    CL28'TELEGRAPH -- TYPE 2'
         DC    CL28'WORLD TRADE TELEGRAPH'
         DC    CL28'SYNCHRONOUS -- TYPE 1'
         DC    CL28'IBM -- TYPE 3'
         DC    CL28'SYNCHRONOUS -- TYPE 3'
         ENTRY   TAB1,TAB2,TAB3,TAB4,TAB5,TAB6,TAB7,TAB8,TAB9,TAB10
         ENTRY   TCUTAB,ADAPTAB,MODELA,MODELB,MODELC,MODELD,MODELE
         ENTRY   MODELF,MODELG,MODELH,SPECIAL
         END
