         MACRO
&NAME    $ENTER &TYPE
         LCLC  &LABEL
&LABEL   SETC  'IHB'.'&SYSNDX'
         AIF   ('&TYPE' EQ 'VALCHECK').VALCK
         AIF   ('&TYPE' EQ 'ATTNEXIT').ATTN
         AIF   ('&TYPE' EQ '').MAIN
         MNOTE 8,'INVALID TYPE ''&TYPE'''
         MEXIT
.MAIN    ANOP
&NAME    CSECT
         SAVE  (14,12),,*
         LCLA  &R
&R       SETA  0
.EQU     ANOP
R&R      EQU   &R
&R       SETA  &R+1
         AIF   (&R LT 16).EQU
         LR    R9,R15
         USING &NAME,R9,R10,R11
         LA    R11,2048
         LA    R10,2048(R9,R11)
         LA    R11,2048(R10,R11)
         MEXIT
.VALCK   ANOP
&NAME    CSECT
         SAVE  (14,12)
         LR    R8,R15             BASE REGISTER ADDRESS
         USING &NAME,R8           BASE REGISTER NOTIFICATION
         L     R7,4(,R1)          WORK AREA ADDRESS
         LM    R9,R12,BASES       RESTORE BASE REGISTERS
         L     R6,0(R1)           PDE ADDRESS
         LA    R15,VALSAVE
         AGO   .CHAIN
.ATTN    ANOP
&NAME    CSECT
         SAVE  (14,12)
         L     R7,8(,R1)
         LM    R9,R12,BASES
         LA    R15,ATTNSAVE
.CHAIN   ST    R13,4(,R15)
         ST    R15,8(,R13)
         LR    R13,R15
         L     R8,=A(&NAME)       BASE REGISTER ADDRESS
         USING &NAME,R8           BASE REGISTER NOTIFICATION
         SPACE 1
         MEND
