         MACRO
&NAME    $MSG  &TEXT
         LCLA  &A
&A       SETA  K'&TEXT-2+4
&NAME    DC    AL2(&A,0),C&TEXT              NORMAL MESSAGE
         MEND
