         MACRO $PUTGET -  OUTPUT A DATA LINE AND GET RESPONSE
&NAME   $PUTGET  &LINE,&ATTN=
         AIF   ('&LINE' EQ '(1)' OR '&LINE' EQ '(R1)').CALL
         AIF   ('&LINE'(1,1) EQ '(').R
&NAME    LA    R1,&LINE
         BAL   R14,$PUTGET
         AGO   .ATTN
.R       ANOP
&NAME    LR    R1,&LINE(1)
         BAL   R14,$PUTGET
         AGO   .ATTN
.CALL    ANOP
&NAME    BAL   R14,$PUTGET
.ATTN    ANOP
         AIF   ('&ATTN' EQ '').NOATTN
         B     &ATTN                         EXIT IF ATTENTION OCCURRED
         AGO   .END
.NOATTN  NOP   0                             IGNORE ATTENTIONS
.END     MEND
