         MACRO $PUTLINE -  OUTPUT A DATA LINE
&NAME   $PUTLINE &LINE,&ATTN=
         AIF   ('&LINE' EQ '(1)' OR '&LINE' EQ '(R1)').CALL
         AIF   ('&LINE'(1,1) EQ '(').R
&NAME    LA    R1,&LINE                      ADDRESS OF DATA LINE
         BAL   R14,$PUTLINE                  INVOKE PUTLINE INTERFACE
         AGO   .ATTN
.R       ANOP
&NAME    LR    R1,&LINE(1)                   ADDRESS OF DATA LINE
         BAL   R14,$PUTLINE                  INVOKE PUTLINE INTERFACE
         AGO   .ATTN
.CALL    ANOP
&NAME    BAL   R14,$PUTLINE                  INVOKE PUTLINE INTERFACE
.ATTN    ANOP
         AIF   ('&ATTN' EQ '').NOATTN
         B     &ATTN                         EXIT IF ATTENTION OCCURRED
         AGO   .END
.NOATTN  NOP   0                             IGNORE ATTENTIONS
.END     MEND
