         MACRO $TMSG   -   OUTPUT A STATUS OR ERROR MESSAGE WITH MSGID
&NAME    $TMSG &NUM
         AIF   ('&NUM' EQ '(1)' OR '&NUM' EQ '(R1)').CALL
&NAME    LA    R1,&NUM
         BAL   R14,$TMSGRT
         MEXIT
.CALL    ANOP
&NAME    BAL   R14,$TMSGRT
         MEND
