* /* START OF SPECIFICATIONS ****
*02* PROCESSOR = ASSEMBLER
**** END OF SPECIFICATIONS ***/
         TITLE ' TEXT AND MITAB MACRO DEFINITIONS '
         MACRO
&LABEL   TEXT  &ADDR1,&DELIM,&ADDR2
.*********************************************************************.
.*  CHECK FOR DELIMITER AND ADVANCE TEXT POINTER WHEN APPROPRIATE    *.
.*********************************************************************.
         GBLC  &TCP
&LABEL   C     &TCP,OPNEND              DOES TEXT END HERE ?
         BNL   &ADDR1                   YES
         AIF   ('&DELIM' EQ '').MEND    GO IF NO DELIMITER SPECIFIED
         GOIF  &DELIM,NE=&ADDR2         GO IF DELIMITER NOT IN TEXT
         LA    &TCP,NXTCH               POINT TO NEXT CHARACTER
.MEND    MEND
         SPACE 5
         MACRO
&NAME    MITAB
.*********************************************************************.
.* THIS MACRO IS ONLY CALLED ONCE.ITS PURPOSE IS TO SET THE GLOBAL   *.
.* VARIABLES USED IN THE CONSTRUCTION OF THE FAR TABLE.THE VARIABLES *.
.* CORRESPOND TO THE BIT SETTINGS DEFINED IN THE FARENT DSECT - IE   *.
.* &FSNLIT CORRESPONDS TO FSNLIT ETC.                                *.
.*********************************************************************.
         GBLA  &FSNLIT,&FSALOC,&FILEN,&FIALOC
         GBLA  &RIDEC,&RIBND,&RIDIV
         GBLA  &RSMOD,&RSALW,&RSDIV
&FSNLIT  SETA  32768
&FSALOC  SETA  4096
&FILEN   SETA  2048
&FIALOC  SETA  256
&RIDEC   SETA  128
&RIBND   SETA  16
&RIDIV   SETA  1
&RSMOD   SETA  &RIDEC
&RSALW   SETA  8
&RSDIV   SETA  &RIDIV
&NAME    EQU   *
         MEND
         TITLE ' OPND MACRO DEFINITION '
         MACRO
&NAME    OPND  &T,                      TYPE                           X
               &A,                      ALLOCATION                     X
               &R                       RESTRICTIONS
.*********************************************************************.
.* THIS MACRO IS CALLED TO CONSTRUCT AN OPERAND ENTRY IN THE FAR     *.
.* TABLE.NO CODE IS GENERATED - THE TABLE ENTRY IS PASSED IN THE     *.
.* GLOBAL &E(&I) TO THE NEAREST FOLLOWING OPCD MACRO.                *.
.* THE VALID PARAMETER FORMATS ARE -                                 *.
.*                                                                   *.
.* PARM MEANING      FORMAT   DESCRIPTION                            *.
.* ---  -------      ------   -----------                            *.
.* &T   TYPE         I OR R   IMMEDIATE,REGISTER OR MASK.            *.
.*                   S        STORAGE,SHIFT OR I/O UNIT.FORMAT D(B). *.
.*                   SX       INDEXED STORAGE.FORMAT IS D(X,B).      *.
.*                   SL       STORAGE WITH LENGTH.FORMAT IS D(L,B).  *.
.* &A   ALLOCATION   N        N IS 1,2 OR 3 AND SETS  ALLOCATION FOR *.
.*                            TYPE I OPERANDS TO FIRST,SECOND OR     *.
.*                            BOTH HOLFBYTES OF SECOND INSTR BYTE.   *.
.*                            FOR TYPE S OPERANDS,SETS ALLOCATION TO *.
.*                            SECOND,THIRD OR FOURTH HALWORD,RESP.   *.
.*                   (N,M)    USED FOR SX AND SL TYPE OPERANDS.N     *.
.*                            GIVE S PART ALLOCATION M I PART ALLOC. *.
.* &R   RESTRICTIONS N OR (N,M) FOR I OPERANDS.N IS DIVISIBILITY     *.
.*                            (POWER OF 2) AND M IS UPPER BOUND      *.
.*                            (POWER OF 2).                          *.
.*                   A OR                                            *.
.*                   (A,B,..) FOR S,SX AND SL OPERANDS.A,B ETC CAN   *.
.*                            BE EITHER OF                           *.
.*                            H,F,D     H,F OR D ALIGNMENT           *.
.*                            ALW       ALWAYS CHECK ALIGNMENT       *.
.*                            NLIT      NO LITERAL ALLOWED           *.
.*                            MOD       MODIFIED AT EXECUTION        *.
.*********************************************************************.
         GBLA  &E(5)                    FAR ENTRY CANDIDATE
         GBLA  &I                       ENTRY INDEX
         GBLA  &M                       MAXIMUM NUMBER OF OPERANDS
         GBLB  &ERR                     ERROR HAS OCCURRED
         GBLA  &FSNLIT,&FSALOC,&FILEN,&FIALOC     FLAGS
         GBLA  &RIDEC,&RIBND,&RIDIV     MORE FLAGS
         GBLA  &RSMOD,&RSALW,&RSDIV     GOOD GRIEF,MORE FLAGS
         LCLA  &J                       SUBSCRIPT
&I       SETA  &I+1                     POINT TO NEXT ENTRY
         AIF   (&I LE &M).CT
         MNOTE 8,'TOO MANY OPERANDS'
.ERR     ANOP
&ERR     SETB  1
         MEXIT
.* CHECK TYPE
.*
.CT      AIF   ('&T' EQ 'R' OR '&T' EQ 'I').I
         AIF   ('&T' EQ 'S').S
         AIF   ('&T' EQ 'SX').SX
         AIF   ('&T' EQ 'SL').SL
         MNOTE 8,'INVALID TYPE'
         AGO   .ERR
.* I (OR R) TYPE OPERAND
.*
.I       AIF   (N'&A NE 1).IVP
         AIF   (&A EQ 1 OR &A EQ 2).I12
&E(&I)   SETA  &A*&FIALOC               SET FIALOC
         AGO   .RIDIV
.I12     ANOP
&E(&I)   SETA  (3-&A)*&FIALOC
.RIDIV   AIF   (N'&R EQ 0).OK
         AIF   (K'&R(1) EQ 0).RIBND
&E(&I)   SETA  &E(&I)+&R(1)*&RIDIV      SET RIDIV
.RIBND   AIF   (N'&R EQ 1).OK
         AIF   (K'&R(2) EQ 0).RIDEC
&E(&I)   SETA  &E(&I)+&R(2)*&RIBND      SET RIBND
.RIDEC   AIF   (N'&R EQ 2).OK
         AIF   ('&R(3)' NE 'DEC').IVP
&E(&I)   SETA  &E(&I)+&RIDEC            SET RIDEC
         AGO   .OK
.* S TYPE OPERAND
.S       AIF   (N'&A NE 1).IVP
.SP      ANOP
&E(&I)   SETA  &E(&I)+&A(1)*&FSALOC     SET FSALOC
.RS      AIF   (&J GE N'&R).OK
&J       SETA  &J+1
         AIF   ('&R(&J)' EQ 'H').H
         AIF   ('&R(&J)' EQ 'F').F
         AIF   ('&R(&J)' EQ 'D').D
         AIF   ('&R(&J)' EQ 'ALW').RSALW
         AIF   ('&R(&J)' EQ 'NLIT').FSNLIT
         AIF   ('&R(&J)' EQ 'MOD').RSMOD
.IVP     MNOTE 8,'INVALID PARAMETER'
         AGO   .ERR
.H       ANOP
&E(&I)   SETA  &E(&I)+1*&RSDIV          SET RSDIV FOR H ALIGNMENT
         AGO   .RS
.F       ANOP
&E(&I)   SETA  &E(&I)+2*&RSDIV          SET RSDIV FOR F ALIGNMENT
         AGO   .RS
.D       ANOP
&E(&I)   SETA  &E(&I)+3*&RSDIV          SET RSDIV FOR D ALIGNMENT
         AGO   .RS
.RSALW   ANOP
&E(&I)   SETA  &E(&I)+&RSALW            SET RSALW
         AGO   .RS
.FSNLIT  ANOP
&E(&I)   SETA  &E(&I)+&FSNLIT           SET FSNLIT
         AGO   .RS
.RSMOD   ANOP
&E(&I)   SETA  &E(&I)+&RSMOD            SET RSMOD
         AGO   .RS
.* SX TYPE OPERAND
.*
.SX      AIF   (N'&A NE 2).IVP
         AIF   (&A(2) EQ 1 OR &A(2) EQ 2).SX12
&E(&I)   SETA  &E(&I)+&A(2)*&FIALOC     SET FIALOC
         AGO   .SP
.SX12    ANOP
&E(&I)   SETA  &E(&I)+(3-&A(2))*&FIALOC
         AGO   .SP
.* SL TYPE OPERAND
.*
.SL      ANOP
&E(&I)   SETA  &E(&I)+&FILEN            SET FILEN
         AGO   .SX
.OK      ANOP
         MEND
         TITLE ' OPCD MACRO DEFINITION '
         MACRO
&NAME    OPCD  &O
.*********************************************************************.
.* THIS MACRO IS CALLED TO GENERATE AN INSTRUCTION ENTRY IN THE FAR  *.
.* TABLE (IF AN IDENTICAL ONE IS NOT ALREADY THERE) AND TO CONSTRUCT *.
.* A POINTER IN THE FGT OR FGTX TABLE TO THE FAR ENTRY FOR THE       *.
.* INSTRUCTION.                                                      *.
.* THE OPERAND IS THE ONE- OR TWOBYTE OPCODE FOR THE INSTRUCTION.    *.
.* FOR EXTENDED BRANCHES,TWO BYTES MUST BE USED - EG X'07F0' FOR BR  *.
.*********************************************************************.
         GBLA  &E(5)                    CANDIDATE FOR FAR ENTRY
         GBLA  &I                       INDEX IN ENTRY
         GBLB  &ERR                     ERROR HAS OCCURRED
         GBLA  &M                       MAXIMUM NUMBER OF OPERANDS
         GBLA  &F1(255),&F2(255),&F3(255),&F4(255),&F5(255)
         GBLA  &FGT1(128),&FGT2(128)    **** STUPID ASSEMBLER ***
         GBLA  &FGTXO(255),&FGTXP(255)  FGT FOR EXTENDED OPCODES
         GBLA  &FP                      FAR POINTER
         GBLA  &XOCP                    POINTER FOR EXTENDED OPCODES
         LCLA  &J,&N                    INDICES
         LCLC  &FOP(5)                  FAR OPERANDS
         AIF   (&ERR).ERR
.L1      ANOP
&J       SETA  &J+1
         AIF   (&J GT &FP).NEW          GO MAKE NEW ENTRY
         AIF   (&F1(&J) NE &E(1)).L1    GO IF 1:ST OPND NOT EQUAL
         AIF   (&F2(&J) NE &E(2)).L1    GO IF 2=ND OPND NOT EQUAL
         AIF   (&F3(&J) NE &E(3)).L1    GO IF 3=RD OPND NOT EQUAL
         AIF   (&F4(&J) NE &E(4)).L1    GO IF 4=TH OPND NOT EQUAL
         AIF   (&F5(&J) NE &E(5)).L1    GO IF 5=TH OPND NOT EQUAL
.OLD     AIF   (&O GT X'FF').XOC        GO IF EXTENDED OPCODE
         AIF   (&O GT 127).FGT2
&FGT1(&O+1)   SETA  &J-1                SET FAR POINTER IN FGT
         AGO   .OK
.FGT2    ANOP
&FGT2(&O-127) SETA  &J-1                SET FAR POINTER IN FGT
         AGO   .OK
.XOC     ANOP
&XOCP    SETA  &XOCP+1
&FGTXO(&XOCP) SETA &O
&FGTXP(&XOCP) SETA  &J-1                SET FAR POINTER IN FGTX
         AGO   .OK
.NEW     ANOP
&N       SETA  2
.L2      AIF   (&N GT &M).GEN
&FOP(&N) SETC  ','.'&E(&N)'
&N       SETA  &N+1
         AGO   .L2
.GEN     ANOP
&NAME    DC  AL2(&E(1)&FOP(2)&FOP(3)&FOP(4)&FOP(5))
&FP      SETA  &FP+1
&F1(&FP) SETA  &E(1)
&F2(&FP) SETA  &E(2)
&F3(&FP) SETA  &E(3)
&F4(&FP) SETA  &E(4)
&F5(&FP) SETA  &E(5)
         AGO   .OLD
.ERR     MNOTE 8,'NO TABLE ENTRIES GENERATED'
         AGO   .END
.OK      ANOP
         MNOTE *,'FAR ENTRY NUMBER IS &J'
.END     ANOP
&E(1)    SETA  0
&E(2)    SETA  0
&E(3)    SETA  0
&E(4)    SETA  0
&E(5)    SETA  0
&I       SETA  0
&ERR     SETB  0
         MEND
         TITLE ' MIEND MACRO DEFINITION '
         MACRO
&NAME    MIEND
.*********************************************************************.
.* THIS MACRO IS ONLY CALLED ONCE.ITS PURPOSE IS TO GENERATE CODE    *.
.* FOR THE FGT AND FGTX TABLES THAT HAVE BEEN GUILT BY PRECEDING     *.
.* OPCD MACRO INSTRUCTIONS.                                          *.
.*********************************************************************.
         GBLA  &FGT1(128),&FGT2(128)
         GBLA  &FGTXO(255),&FGTXP(255),&XOCP
         LCLA  &J,&N
&NAME    EQU   *    FAR GET TABLE FOR INSTRUCTIONS WITH ONE-BYTE OPCODE
.L1      AIF   (&J GE 256).XOC
         AIF   (&J GT 127).FGT2
         DC    AL1(&FGT1(&J+1),&FGT1(&J+2),&FGT1(&J+3),&FGT1(&J+4),&FGT?
               1(&J+5),&FGT1(&J+6),&FGT1(&J+7),&FGT1(&J+8))
         AGO   .COM
.FGT2    ANOP
         DC    AL1(&FGT2(&J-127),&FGT2(&J-126),&FGT2(&J-125),&FGT2(&J-1X
               24),&FGT2(&J-123),&FGT2(&J-122),&FGT2(&J-121),&FGT2(&J-1X
               20))
.COM     ANOP
&J       SETA  &J+8
         AGO   .L1
.XOC     ANOP
&J       SETA  1
&NAME.X  EQU   *    FAR GET TABLE FOR INSTRUCTIONS WITH EXTENDED OPCODE
.*
.* THIS SECTION ASSUMES THAT EXTENDED INSTRUCTIONS HAVE BEEN ENTERED
.* SORTED IN ASCENDING ORDER ON THE OPCODE.
&N       SETA  1
         AIF   (&XOCP EQ 0).OUT
.L2      AIF   (&FGTXO(&J)/256 NE &FGTXO(&N)/256).GEN
         AIF   (&FGTXP(&J) NE &FGTXP(&N)).GEN
&N       SETA  &N+1
         AIF   (&N LE &XOCP).L2
.GEN     DC    AL2(&FGTXO(&N-1))        MAX OPCODE
         DC    AL1(&FGTXP(&N-1))        FAR ENTRY NUMBER
&J       SETA  &N
         AIF   (&N LE &XOCP).L2
.OUT     MEND
         TITLE ' GLOBAL DECLARATIONS AND INITIAL SETTINGS FOR X5M '
* THE GLOBAL &M IS THE MAXIMUM NUMBER OF OPERANDS IN ANY MACHINE
* INSTRUCTION.EACH ENTRY IN FAR CONSISTS OF &M HALFWORDS.THE
* MAXIMUM NUMBER THAT CAN BE ACCOMODATED WITH PRESENT BIT ASSIGNMENTS
* IS 5 - THREE STORAGE OPERANDS AND TWO IMMEDIATE OPERANDS.
         GBLA &M
* REGISTERS
         GBLC  &SCH                     SCRATCH REG
         GBLC  &RTN                     RETURN REG
         GBLC  &COM                     PHASE COMMON AREA ADDRESS
         GBLC  &SCR                     SCRATCH - LOCAL USE ONLY
         GBLC  &WRK                     WORK
         GBLC  &TBP                     TEXT BASE POINTER
         GBLC  &TCP                     TEXT CURRENT POINTER
         GBLC  &FRG                     FAR TABLE POINTER
         GBLC  &ESD1                    ESDID OF EXPRESSION 1
         GBLC  &EXP1                    VALUE OF EXPRESSION 1
         SPACE 2
&M       SETA  3
&COM     SETC  'R7'
&SCR     SETC  'R14'
&WRK     SETC  'R6'
&TBP     SETC  'R5'
&TCP     SETC  'R10'
&SCH     SETC  'R15'
&RTN     SETC  'R9'
&ESD1    SETC  'R6'
&EXP1    SETC  'R4'
&FRG     SETC  'R3'
* NOTE - R1 AND R2 ARE DESTROYED IN THIS MODULE
         JHEAD 'MACHINE INSTRUCTION PROCESSOR',                        X
               PHASEID=X5M,                                            X
               LEVEL=10
*FUNCTION/OPERATION-                                                  *
*   ASSEMBLE MACHINE INSTRUCTIONS.                                    *
*   THE OPERAND LIST OF A MACHINE INSTRUCTION CONSISTS OF NONE OR     *
*   MORE OPERANDS,SEPARATED BY COMMAS.EACH OPERAND IS CONSIDERED      *
*   TO CONSIST OF AN OPTIONAL 'I PART' AND AN OPTIONAL 'S PART'.      *
*   THE FOLLOWING OPERAND TYPES ARE RECOGNIZED -                      *
*                                                                     *
*   TYPE FORMAT DESCRIPTION                       I PART   S PART     *
*   ---- ------ -----------                       -----    ------     *
*   I    I      IMMEDIATE,MASK OR REGISTER FIELD   I        N/A       *
*   S    D(B)   STORAGE,OR SHIFT OR I/O UNIT       N/A      D(B)      *
*   SX   D(X,B) INDEXED STORAGE OPERAND            X        D(B)      *
*   SL   D(L,B) STORAGE OPERAND WITH LENGTH FIELD  L        D(B)      *
*                                                                     *
*   EACH OPERAND IS PROCESSED SEPARATELY.THE PROCESSING IS DRIVEN     *
*   BY A TABLE -FAR- THAT DESCRIBES THE OPERAND FORMAT,ALLOCATION     *
*   (IN ASSEMBLED INSTRUCTION) AND RESTRICTIONS.THE TABLE ENTRY       *
*   FORMAT IS DESCRIBED WITH THE DSECT 'FARENT'.                      *
*                                                                     *
*ENTRY POINT-                                                         *
*        X5M.                                                         *
*                                                                     *
*INPUT-                                                               *
*   INTERNAL TEXT RECORD - READ BY PHASE MAINLINE TO JTEXT BUFFER.    *
*                                                                     *
*OUTPUT-                                                              *
*   ASSEMBLED TEXT IN LEFTHF (IN PHASE COMMON).                       *
*                                                                     *
*EXTERNAL ROUTINES-                                                   *
*        X5V - EVALUATE EXPRESSIONS.                                  *
*        X5P - PRINT AND PUNCH.                                       *
*        X5L - LOG ERRORS.                                            *
*                                                                     *
*EXITS,NORMAL-                                                        *
*   RETURN TO PHASE MAINLINE.                                         *
*                                                                     *
*EXITS,ERROR-                                                         *
*   N/A                                                               *
*                                                                     *
*TABLES/WORK AREAS-                                                   *
*   FAR - MACHINE INSTRUCTION TABLE(SEE ABOVE).                       *
*   USING - USING TABLE.                                              *
*                                                                     *
*ATTRIBUTES-                                                          *
*   REFRESHABLE.                                                      *
*                                                                     *
*NOTES-                                                               *
*   INSTRUCTIONS FOR MODIFYING THE FAR TABLE ARE INCLUDED WITH THE    *
*   TABLE.TO ACCOMODATE MORE THAN 3 OPERANDS,CHANGE THE GLOBAL &M.    *
*   TO HANDLE THREE STORAGE OPERANDS,LEFTHF MUST BE EXPANDED.         *
*                                                                     *
         SPACE 2
         PRINT OFF                      DON'T PRINT JCOMMON COPY CODE
         COPY  JCOMMON                  JCOMMON COPY CODE
         PRINT OFF                      DON'T PRINT JTEXT COPY CODE
         COPY  JTEXT                    JTEXT COPY CODE
         PRINT OFF                      DON'T PRINT THE X5COM COPY CODE
         COPY  X5COM                    X5COM COPY CODE
         PRINT OFF                      DON'T PRINT JERMSGCD COPY CODE
         COPY  JERMSGCD                 DEFINE ERROR CODES AND SEVERITY
         PRINT ON                       THAT'S ALL THE COPY CODE
         SPACE 5
JTEXTA   DSECT                          RESUME VARIABLE PART OF TEXT
         ORG   JTEXTA                   REORG FOR CURRENT CHARACTER
CURCH    DBV   COMMA(JCOMMA),                                          X
               LPAREN(JLPARN),                                         X
               RPAREN(JRPARN)
NXTCH    EQU   *                        NEXT CHARACTER
         EJECT
FGTXE    DSECT                          ENTRY IN FGT FOR EXTENDED OPS
XOPCM    DS    CL2                      OPCODE MASK - TWO BYTES
XFPTR    DS    C                        FAR POINTER
XNEXT    EQU   *                        NEXT ENTRY
         COPY  RXLFMTS                  POST PROCESSOR RECORD FORMATS
         EJECT
* FARENT
*
*   THIS DSECT DESCRIBES THE FORMAT OF AN OPERAND ENTRY IN FAR.
*   EACH INSTRUCTION ENTRY IN FAR CONSISTS OF A FIXED NUMBER OF
*   FAR OPERAND ENTRIES.THE FIXED NUMBER IS THE MAXIMUM NUMBER OF
*   OPERANDS IN ANY MACHINE INSTRUCTION AND IS SET THROUGH THE
*   GLOBAL &M.
*   EACH FAR OPERAND ENTRY CONSISTS OF TWO BYTES.THE FORMAT OF THE
*   FIRST BYTE IS -
*
*   NAME     BITS   DESCRIPTION
*   ----     ----   -----------
*   FSNLIT   0      1    LITERAL NOT ALLOWED (WHEN FSALOC NONZERO)
*            1           NOT USED
*   FSALOC   2-3    00   NO S PART
*                   01   S PART ASSEMBLED INTO HALFWORD 1
*                   10   S PART ASSEMBLED INTO HALFWORD 2
*                   11   NOT USED
*   FILEN    4      1    SUBTRACT 1 FROM EVALUATED I PART(LENGTH FIELD)
*            5           NOT USED
*   FIALOC   6-7    00   NO I PART
*                   01   I PART ASSEMBLED INTO BITS 12-15
*                   10   I PART ASSEMBLED INTO BITS 8-11
*                   11   I PART ASSEMBLED INTO BITS 8-15
*
*   THE FORMAT OF THE SECOND BYTE FOR OPERANDS WITHOUT S PART IS -
*
*   NAME     BITS   DESCRIPTION
*   ----     ----   -----------
*   RIDEC    0      1    DECIMAL DIGIT
*            1           NOT USED
*   RIBND    2-3    00   FIELD WIDTH ONLY BOUND FOR VALUE
*                   01   NOT USED
*                   10   NOT USED
*                   11   VALUE LESS THAN 8
*            4-5         NOT USED
*   RIDIV    6-7    00   NO DIVISIBILITY CONSTRAINTS
*                   01   VALUE DIVISIBLE BY 2
*                   10   VALUE DIVISIBLE BY 4
*                   11   NOT USED
*
*   THE FORMAT OF THE SECOND BYTE FOR OPERANDS WITH S PART IS -
*
*   NAME     BITS   DESCRIPTION
*   ----     ----   -----------
*   RSMOD    0      1    OPERAND MODIFIED AT EXECUTION
*            1-3         NOT USED
*   RSALW    4      1    CHECK ALIGNMENT EVEN IF NOALGN OPTION
*            5           NOT USED
*   RSDIV    6-7    00   NO ALIGNMENT RESTRICTIONS
*                   01   ALIGN ON HALFWORD BDRY
*                   10   ALIGN ON FULLWORD BDRY
*                   11   ALIGN ON DOUBLEWORD BDRY
*
         SPACE
FARENT   DSECT
FENT     DS    0H
FMT      DSW   FSNLIT,                  NO LITERAL                     X
               ,,,                                                     X
               FILEN,                   LENGTH FIELD                   *
               ,                                                       *
               FIAL1                    FIRST BIT OF FIALOC
FSALOC   EQU   BIT2+BIT3                S ALLOCATION
FIALOC   EQU   BIT6+BIT7                I ALLOCATION
RIST     DSW   RIDEC                    DECIMAL DIGIT
RIBND    EQU   BIT2+BIT3                I FIELD UPPER BOUND
RIDIV    EQU   BIT6+BIT7                I FIELD DIVISIBILITY
         ORG   RIST
RSST     DSW   RSMOD,                   STORAGE MODIFIED               X
               ,,,                                                     X
               RSALW                    ALIGNMENT ALWAYS CHECKED
RSDIV    EQU   BIT6+BIT7                S DIVISIBILITY(I.E.,ALIGNMENT)
NXTFENT  EQU   *                        NEXT FAR ENTRY
         ORG   FMT
         DBV   EOP(0)                   END OF OPERAND
         EJECT
         JCSECT (X5M00)                 CREATE CSECT
* VS1 RELEASE 3.1 CHANGES
*C579600,580800,594700,594900                                   OX02675
*A540500,540540                                                @OY09690
*D540600                                                       @OY09690
*C536400                                                       @AZ07389
*A590900                                                       @AX13632
*C876300,877200,880200,881400,884490,884610                    @AM07317
         JMODID                         EMBED MODULE IDENTIFIER
         SPACE
X5M      JSAVE BASE=YES                 SAVE CALLING REGISTERS
         JENTRY (X5M01=X5M)             IDENTIFY ENTRY POINT
         JEXTRN (X5P01=X5P)             ENTRY POINT FOR PRINT AND PUNCH
         JEXTRN (X5L01=LOGERR)          ENTRY POINT FOR ERROR LOGGING
         JEXTRN (X5V01=X5V)             ENTRY POINT FOR EXPR EVALUATION
         USING X5COM,&COM
         USING JTEXT,&TBP
         USING JTEXTA,&TCP
         USING FARENT,&FRG
         USING XRFIN,R11                SETUP BASE FOR XREF RECORD
         EJECT
***********************************************************************
* INIT                                                                *
*   INITIALIZE FOR MACHINE INSTRUCTION PROCESSING.                    *
***********************************************************************
         SPACE
         SET   (TOOMANY,LEAVE),OFF      RESET SWITCHES
         SET   ZAPIT,OFF                INITLZ SW FOR ZEROING OP CODE
         L     &WRK,ELCTR               GET LOCATION COUNTER
         TM    ELCTR+L'ELCTR-1,BIT7     IS IT ODD ?
         BNO   INTLCT                   NO, STORE
* PRODUCE ALIGNMENT BYTE FOR PRINTING
         ST    &WRK,LOCATN              STORE LOCATION CTR IN OUTPUT
         MVI   LHFLGS,D1                LENGTH IS ONE
         SET   ENTALN,ON                INDICATE ALIGNMENT
         LA    R10,LSTOUT               SET PARAMETER FOR X5P
         JCALL X5P             GO PRINT AND PUNCH ALIGNMENR BYTE
         LA    &WRK,D1(,&WRK)           ROUND LOCTR TO HALFWORD
         ST    &WRK,ELCTR               STORE IT
INTLCT   ST    &WRK,LOCATN              SET LOCATION FOR INSTRUCTION
         SPACE
*   GET LENGTH OF INSTRUCTION(NEEDED IN X5V)
         SPACE
         IC    &SCR,JTFLGA              GET LENGTH FLAGS(IN JTFLGA)
         SLL   &SCR,D32-JLN4            SHIFT OUT GARBAGE
         SRL   &SCR,D32-(JLN4+D1)       SHIFT BACK AND MULTIPLY BY 2
         LA    &SCR,D2(,&SCR)           ADD 2 (BASIC LENGTH)
         STH   &SCR,CLCLNG              STORE INSTRUCTION LENGTH
         SPACE
         XC    LHIMD(LHFLGS-LHIMD),LHIMD  CLEAR LEFTHALF
         MVC   LHOPCD,JTIOP             MOVE OPCODE TO OUTPUT
         SPACE
* GET POINTER TO OPERAND LIST
         SPACE
         L     &TCP,OPNADR              INITIALIZE TEXT POINTER
         SPACE
* GET ADDRESS OF INSTRUCTION ENTRY IN FAR.
*   THE ENTRY IS LOOKED UP VIA ONE OF TWO AUXILIARY TABLES,FGT AND
*   FGTX.FGT IS USED FOR INSTRUCTIONS WITH ONE-BYTE OPCODE AND IS
*   SIMPLY A TRANSLATION TABLE.FGTX IS USED FOR EXTENDED OPCODE,IE
*   EXTENDED BRANCHES AND TWO-BYTE OPCODES.ITS ENTRIES ARE SORTED IN
*   ASCENDING ORDER ON THE OPCODE.
         SPACE
         SR    R2,R2                    CLEAR POINTER REG
         GOIF  JEXTB,ON=INTXOC          GO IF EXTENDED OPCODE
         TRT   JTIOP1,FGT               GET FAR ENTRY NUMBER IN REG 2
         B     INTGFR
         SPACE
INTXOC   LA    &SCR,FGTX                GET FAR-GET-TABLE ADDRESS  FOR
         USING FGTXE,&SCR               EXT OPCODES
INTXCP   CLC   XOPCM,JTIOP              IS THIS THE ENTRY
         BNL   INTXFD                   YES
         LA    &SCR,XNEXT               NO,TRY
         B     INTXCP                   NEXT ENTRY
INTXFD   IC    R2,XFPTR                 GET FAR ENTRY NUMBER
         SPACE
INTGFR   MH    R2,=Y(&M*L'FENT)         GET ADDR (REL TO FAR) OF ENTRY
         LA    &FRG,FAR(R2)             ADD FAR BASE POINTER
         LA    &SCR,FARENT+&M*L'FENT    GET ADDR OF FAR ENTRY END
         ST    &SCR,FNTEND              STORE IT
         TEXT  DRVCKE                   GO IF NO OPERAND THERE
         CLC   D0(,&FRG),=H'0'          ZERO FAR ENTRY. TREAT OPND AS
         BNE   DRVRST                    A COMMENT
         B     CLOSE                    GO OUTPUT
*   END OF INITIALIZATION
         EJECT
***********************************************************************
* DRIVER                                                              *
*   FUNCTION                                                          *
*    -MONITOR OPERAND PROCESSING.                                     *
*    -DIAGNOSE THE FOLLOWING ERRORS-                                  *
*      ERROR                                 ACTION                   *
*      ----                                  ------                   *
*      TOO FEW OPERANDS                      LEAVE *                  *
*      TOO MANY OPERANDS                     SCAN SUPERFLUOUS OPERANDS*
*                                            FOR ERRORS               *
*      COMMA EXPECTED AFTER OPERAND          LEAVE                    *
*                                                                     *
*      *'LEAVE' MEANS THAT CONTROL IS RETURNED TO PHASE MAINLINE,WITH *
*        UNPROCESSED OPERANDS SET TO ZERO.                            *
***********************************************************************
         SPACE 2
DRIVERZ  SET   ZAPIT,ON                 SET TO ZERO LEFTHALF
DRIVER   GOIF  LEAVE,ON=CLOSEZ          EXIT IF UNRECOVERABLE ERROR    *
                                        OCCURRED DURING OPERAND PROC
         LA    &FRG,NXTFENT             GET NEXT FORMAT
         CLI   D0(R10),JBLANK           IS IT BLANK?
         BE    DRVCKE                   YES,GO CHECK IF IT SHOILD BE
         TEXT  DRVCKE,COMMA,DRVNCM      GO TO DRVCKE IF END OF TEXT,   *
                                        DRVNCM IF NOT SO AND NO COMMA
         GOIF  EOP,EQ=DRV2MN            GO IF END OF FORMAT
         C     &FRG,FNTEND                   LIKE-
         BNL   DRV2MN                        WISE
DRVRST   EQU   *                   RESET SWITCHES AND WORK AREAS
         SET   (E2PR,E3PR,E1ERR,E2ERR,E3ERR),OFF       RESET SWITCHES
         XC    MWORK(MWLEN),MWORK       CLEAR WORK AREA
         SR    &ESD1,&ESD1              CLEAR
         SR    &EXP1,&EXP1              CLEAR
         MVI   LQ1+L'LQ1-1,1            SET INITIAL LENGTH ATTR TO 1
         B     COLLECT                  GO SCAN OPERAND
         SPACE
DRVCKE   EQU   *                   NO MORE TEXT.CHECK IF IT SHOULD BE.
         GOIF  EOP,EQ=CLOSE             GO IF FORMAT END (ALL OK)
         C     &FRG,FNTEND                   LIKE-
         BNL   CLOSE                         WISE
         X5ERRL 210,0,CLOSEZ            TOO FEW OPERANDS
         SPACE
DRVNCM   X5ERRL 178,CLMPTR,CLOSEZ       SYNTAX ERROR
         SPACE
DRV2MN   EQU   *                   TOO MANY OPERANDS
         GOIF  TOOMANY,ON=DRVRST        GO IF ALREADY DIAGNOSED
         X5ERRL 211,0                   TOO MANY OPERANDS
         SET   TOOMANY,ON               REMEMBER WE DID
         SET   ZAPIT,ON                 SET TO ZERO LEFTHALF
         B     DRVRST                   CONTINUE
         SPACE 5
CLOSEZ   SET   ZAPIT,ON                 SET TO ZERO LEFTHALF
         EJECT
***********************************************************************
* CLOSE                                                               Q
*   WRAP UP INSTRUCTION PROCESSING.CALL PRINT ROUTINE.EXIT            *
***********************************************************************
         SPACE 2
CLOSE    L     &SCR,ELCTR               TAKE A LOCATION COUNTER
         LH    &SCH,CLCLNG              ... AND ITS LENGTH
         AR    &SCR,&SCH                    ADD THEM TOGETHER
         ST    &SCR,ELCTR               AND YOU HAVE A NEW,BETTER LOCTR
         STC   &SCH,LHFLGS              SET LENGTH FOR OUTPUT
         GOIF  ZAPIT,OFF=CLOSE0         BR IF NO ERROR
         BCTR  &SCH,0                   DECR LNG BY 1
         EX    &SCH,ZAPER               ZERO OP CODE
         SPACE
CLOSE0   C     R14,=X'1000000'          IS IT GREATER THAN MAXIMUM?
         BL    CLOSE1                   BRANCH AROUND IF BELOW LIMIT
         GOIF  WRPFLG,ON=CLOSE1         BRANCH AROUND IF NOT FIRST
         SET   WRPFLG,ON                SET WRAPFLAG
         X5ERRL 246,0                   LOCATION COUNTER OVERFLOW
         SPACE
CLOSE1   LA    R10,LSTOUT               SET PARAMETER FOR X5P
         JCALL X5P                      PRINT AND/OR PUNCH INSTR
         GOIF  JERR,OFF=X5M99           WAS AN ERROR FLAGGED
         LA    R10,ERROUT               YES, LOAD ERROR FLAG INDEX
         JCALL X5P                      GO PRINT FLAG
X5M99    JRETURN ,                      RETURN TO PHASE MAINLINE
ZAPER    XC    LHOPCD(*-*),LHOPCD       ZERO OPCODE
         EJECT
***********************************************************************