         MACRO
&NAME    DICTCALL &ENTRY,&POINTER=DICTBASE
&NAME    L     R12,&POINTER             SET UP DICT RTN ENTRY ADDR
         MVI   NDXVAL,&ENTRY            INDICATE ENTRY BEING MADE
         BALR  R9,R12                   LINK TO DICTIONARY ROUTINE
         MEND
         SPACE 3
         MACRO
         GENOPS &OP
         ORG   MOPTABLE+2*JT&OP         ORIGIN TO OP CODES SLOT IN TBL
         AIF   (K'&SYSLIST(2) EQ 0).STEP2
         DC    Y(&SYSLIST(2)-MOPRTNS)   DUMMY ENTRY
         MEXIT
.STEP2   AIF   ('&OP'(1,1) EQ 'M').M
         DC    Y(M&OP-MOPRTNS)          OP CODES ENTRY IN BRANCH TABLE
         MEXIT
.M       DC    Y(&OP-MOPRTNS)           OP CODE'S ENTRY IN BRANCH TABLE
         MEND
         SPACE 3
         MACRO
         OPS   &OP
         ORG   OPTAB+2*JTM&OP           ORIGIN TO OPERATOR SLOT IN TBL
         DC    Y(EVAL&OP-EVALOPS)        OPERATOR ENTRY IN BRANCH TABLE
         SPACE
         MEND
         EJECT
         JHEAD 'XKE MACRO GENERATOR',                                  X
               PHASEID=X3A,                                            X
               LEVEL=10
*                                                                     *
*FUNCTION/OPERATION-                                                  *
*   READS EDITED TEXT FOR MAINLINE CODE AND MACRO DEFINITIONS, WITH   *
*   THEIR DICTIONARIES, INTERPRETIVELY EXECUTES MACRO LANGUAGE PSEUDO-*
*   OPS TO PRODUCE LOGICAL SOURCE LANGUAGE FOR INPUT TO THE ASSEMBLY  *
*   PROCESS.  PERFORMS MACRO EXPANSION AND VARIABLE SYMBOL SUBSTITU-  *
*   TION.  MAPS TEXT INTO INTERNAL EVALUATION NOTATION FOR ASSEMBLY   *
*   PROCESS.  OUTPUTS TEXT AND SYMBOL RESOLUTION INFORMATION FOR ASSEM*
*   BLY PROCESSING.                                                   *
*                                                                     *
*ENTRY POINTS-                                                        *
*        MENTRY--ONLY ENTRY POINT                                     *
*                                                                     *
*INPUT-                                                               *
*        FILE1--EDITED TEXT FOR MAINLINE AND MACRO DEFINITIONS, WITH  *
*   CORRESPONDING DICTIONARIES.                                       *
*                                                                     *
*OUTPUT-                                                              *
*        FILE2--TEXT POST GENERATION                                  *
*        FILE3--SYMBOL DEFINITION AND SYMBOL REFERENCE INFORMATION    *
*                                                                     *
*EXTERNAL ROUTINES-                                                   *
*   USES ASSEMBLER SERVICES IN ROOT MODULE.                           *
*                                                                     *
*EXITS-                                                               *
*   NORMAL--JRETURN TO CONTROLLER WITH COMPLETION CODE OF X'00' IN    *
*   PARAMETER REGISTER R10.                                           *
*   ERROR--JRETURN TO CONTROLLER WITH COMPLETION CODE OF X'04' IN     *
*   PARAMETER REGISTER R10.                                           *
***********ALSO PROVIDE FOR NO TEXT AND NO SYMBOL CONDITIONS***********
*                                                                     *
*TABLES/WORK AREAS-                                                   *
*        *********************** TO BE DOCUMENTED WHEN DEFINED*********
*                                                                     *
*        MOPTABLE--BRANCH TABLE FOR GENERATOR OPERATIONS              *
         EJECT
         COPY  JCOMMON                  INCLUDES USING FOR COMMON
         EJECT
         COPY  JTEXT
         EJECT
MTEXT    DSECT ,                        COPY OF JTEXT FOR OUTPUT
         SPACE
MTRLI    DS    H                        RECORD LENGTH
MTFLGA   DSW   MPSOP                    FLAGA PSEUDO-OP FLAG
MTFLGB   DSW   MPRONLY,                 FLAGB PRINT ONLY SWITCH        X
               MERR,                    DEAD STATEMENT                 X
               MNOCNT,                  DON'T COUNT                    X
               MGEN,                    GENERATED                      X
               MNMERR                   INVALID NAME FIELD
MTIOP    DS    0H                       OP CODE
MTIOP1   DS    1X                       1ST BYTE
MTIOP2   DS    X                        2ND BYTE
MTNMP    DS    H                        NAME POINTER
MTOCP    DS    H                        MNEMONIC POINTER
MTOPP    DS    H                        OPERAND POINTER
MTCPR    DS    H                        COMMENTS POINTER
MTSPR    DS    H                        STRING POINTER
MTFLGC   DS    C                        FLAG C                  OX00407
MTSYMCNT DS    C                        NUMBER OF OPERAND SYMBOLS
MTHDREND EQU   *                        END OF HEADER
MTHDRLN  EQU   MTHDREND-MTEXT           LENGTH OF HEADER
         SPACE
MTEXTA   DSECT ,                        VARIABLE PORTION--OUTPUT
         SPACE
MTNMO    DSW   ,                        NAME CARD POINTER
MTNML    DS    C                        NAME LENGTH
MTNAME   EQU   *                        NAME
         ORG   MTNMO                    BACK TO START FOR RE-MAP
MTOCO    DSW   ,                        MNEMONIC CARD POINTER
MTOCL    DS    C                        MNEMONIC LENGTH
MTOPCD   EQU   *                        MNEMONIC
         ORG   MTNMO                    BACK AGAIN FOR RE-MAP
MTOPO    DSW   ,                        OPERAND CARD POINTER
MTOPL    DS    C                        OPERAND LENGTH
MTOPND   EQU   *                        OPERAND
         ORG   MTNMO                    BACK FOR RE-MAP
MTCOP    DS    C                        COMMENT OUTPUT POINTER
MTCML    DS    C                        COMMENT LENGTH
MTCMM    EQU   *                        COMMENT
         ORG   MTNMO                    BACK AGAIN
MTSTC    DS    C                        STRING COUNT
MTSTO    DS    C                        STRING1 POINTER
MTSTL    DS    C                        STRING1 LENGTH
MTSTR    EQU   *                        STRING1
         ORG   MTNMO                    ORG BACK FOR NEXT STRING
MTSTO2   DS    C                        STRING2 POINTER
MTSTL2   DS    C                        STRING2 LENGTH
MTSTR2   EQU   *                        STRING2
         SPACE 3
PARMTAB  DSECT ,                        MAP OF PARAMETER TABLE ENTRIES
         SPACE
PFLAG    DSW   PSUB,                    SUB-OPERAND (ALL)              X
               PSUBL,                   SUB-OPERAND (LAST)             X
               PSUBF,                   SUB-OPERAND (FIRST)            X
               PPASS,                   PASSED PARAMETER               X
               POMIT,                   OMITTED OPERAND                X
               POS,                     ORDINARY SYMBOL                X
               PSDT,                    SELF-DEFINING TERM             X
               PCHAR                    CHARACTER STRING
         SPACE
PCS      EQU   *                        PARAMETER--CHARACTER STRING
PTAT     DS    C                        TYPE ATTRIBUTE
PPAD     DS    4C                       PAD
         DS    C                        DEFAULT BITS
PKAT     DS    C                        COUNT ATTRIBUTE (LENGTH)
PSTRING  EQU   *                        STRING START
         ORG   PCS                      RE-SET FOR NEXT MAP
*PSDT    EQU   *                        SELF DEFINING TERM
         DS    C                        TYPE ATTRIBUTE
PVAL     DS    4C                       VALUE
         ORG   PCS                      NEXT MAP
*POS     EQU   *                        ORDINARY SYMBOL REFERENCE
         DS    C                        TYPE
PLAT     DS    2C                       LENGTH ATTRIBUTE
PSAT     DS    2C                       SCALE ATTRIBUTE
ATTRIB   DSW   TDEFALT,                 TYPE ATTRIBUTE IS DEFAULT VALUEX
               LDEFALT,                 SAME FOR LENGTH                X
               SDEFALT,                 SAME FOR SCALE                 X
               UDEFALT                  UNDEFINED SYMBOL
         ORG   PCS                      NEXT MAP
*POM     EQU   *                        OMITTED--SAME AS PCS
*PSUB    EQU   *                        SUBLIST HEADER
         DS    C                        TYPE
PLATSUB  DS    2C                       LENGTH ATTRIBUTE
PSATSUB  DS    2C                       SCALE ATTRIBUTE
         ORG   PLATSUB                  ORIGIN TWO
PVALSUB  DS    4C                       VALUE
PNAT     DS    2C                       NUMBER ATTRIBUTE--COUNT OF     X
                                          SUBOPERANDS
PKATSUB  DS    2C                       TOTAL COUNT OF ALL CHARACTERS  X
                                          LESS DELIMITING COMMAS AND   X
                                          PARENS.
PLIST    DS    3C                       VECTOR LIST POINTER.
         EJECT
RSYMRCD  DSECT
         COPY  RSYMRCD                  SYMBOL PHASE RECORD DSECT HERE
         EJECT
         COPY  GENCOM
GENCOMLN EQU   (GENCOM99-GENCOM+7)/8    MODULE COMMON LENGTH IN        X
                                                       DOUBLE WORDS
         EJECT
         COPY  JTMTXT
*
*        OP CODE TABLE ENTRY MAP
*
         SPACE
OPNTRY   DSECT
OCHAIN   DS    XL2                      CHAIN POINTER
OFLAGS   DS    X                        FLAGS
OMNEM    EQU   *                        MNEMONIC
         ORG   OPNTRY                   DUMMY FOR POST VARIABLE FIELD
OFLAGA   DS    X                        FLAGA
OINTCD   DS    X                        INTERNAL OP CODE
OINTCD2  DS    X                        OP CODE BYTE 2
OMASK    EQU   OINTCD2                  ESTENDED MNEMONIC MASK
         COPY  JERRCD
ERRMESS  DSECT
EMSGSVTY DS    C                        ERROR SEVERITY CODE
EMSGCODE DS    C                        ERROR NUMBER
EMSGHL   EQU   *-EMSGSVTY               LENGTH FOR SEVERITY NUMBER
ENTRYLNG DS    C                        SNAPSHOT/DATA LENGTH
EMSGNTRY DS    CL8                      SNAPSHOT/DATA
*
* THIS DSECT MAPS THE OPSYN TABLE ENTRY
*
OPSYNTRY DSECT
OPSYNFLG DSW   ,,,,                     SPACE FOR OPCODE FLAGS         X
               OMAC,                    OPSYN MACRO (NOT USED HERE)    X
               ODEL                     DELETED
OPSYNATT DS    XL3                      ATTRIBUTES
ONAMEL   DS    XL1                      NAME LENGTH
ONAME    DS    XL8                      NAME
OPSYND   EQU   *
         EJECT
X3000    DSECT
         SPACE 3
*EQUATES TO BE USED IN SHIFT-MULTIPLY OPERATIONS
         SPACE
TIMES1   EQU   0
TIMES2   EQU   1
TIMES4   EQU   2
TIMES8   EQU   3
TIMES16  EQU   4
TIMES32  EQU   5
TIMES64  EQU   6
TIMES128 EQU   7
TIMES256 EQU   8
         SPACE 3
*        REGISTERS
         SPACE
INDEX1   EQU   R14                      SCRATCH USED AS TEMPORARY INDEX
INDEX2   EQU   R15
RETURN   EQU   R9                       RETURN REGISTER AFTER LINK
SYMPTR   EQU   R11                      FIXED SYMBOL RECORD BASE
SYMPTR2  EQU   R4                       VARIABLE SYMBOL RECORD BASE
FLDPTR   EQU   R2                       MOVEABLE TEXT POINTER--LOCTR
FLDLN    EQU   R2                       LENGTH REGISTER--EVAL
RMOVE    EQU   R3                       EXECUTED MOVE REGISTER--KEEP   X
                                          CLEAR.
EVEN     EQU   R2                         EVEN--
ODD      EQU   R3                             ODD PAIR
RCOMP0   EQU   R0                       SCRATCH AS NEEDED
RCOMPX   EQU   R2                       NON-VOLATILE COMP REG
STACKPTR EQU   R5                       CURRENT EVAL STACK LEVEL
INPTR    EQU   R5                       JTEXT INPUT POINTER
RCOMP1   EQU   R1                       SCRATCH COMPUTATION REGISTER
RLOCTR   EQU   R6                       LOCATION COUNTER SEGMENT
VTXTPTR  EQU   R6                       VARIABLE PORTION OF TEXT
FTXTPTR  EQU   INPTR                    FIXED PORTION OF TEXT
SYMLEN   EQU   R4                       SYMBOL LENGTH
FTXTIN   EQU   R5
VTXTIN   EQU   R6
FTXTOUT  EQU   R11
VTXTOUT  EQU   R4
HEDRPTR  EQU   FLDPTR                   PARAMETER HEADER
METAPTR  EQU   VTXTIN                   PARAMETER META TEXT
         SPACE
*        LANGUAGE DEPENDENT VALUES
         SPACE
MAXDEC   EQU   10                       MAXIMUM DIGITS CONVERTIBLE     X
                                          CHARACTER TO BINARY.
MAXNAME  EQU   8                        MAXIMUM SYMBOL LENGTH
HIALPHA  EQU   JAT                      LAST ALPHABETIC CHARACTER
LOALPHA  EQU   JA                       FIRST ALPHABETIC CHARACTER
HINUM    EQU   J9
LONUM    EQU   J0
HIALNUM  EQU   HIALPHA
LOALNUM  EQU   LONUM
         SPACE
*        SYSTEM TO GENERATOR TEXT FILE EQUATES
         SPACE
GTFILE   EQU   FILE2                    GENERATED TEXT FILE
PMTFILE  EQU   FILE1                    PROGRAMMER MACRO TEXT
SMTFILE  EQU   FILE1                    SYSTEM MACRO TEXT FILE
DFILE    EQU   FILE1                    DICTIONARY FILE
SDFILE   EQU   FILE3                    SYMBOL DEFINITION FILE
SRFILE   EQU   FILE3                    SYMBOL REFERENCE FILE
         SPACE
*        GENERATOR LIMITING EQUATES--MAY BE CHANGED TO INCREASE NON    X
                                        LANGUAGE DEPENDENT LIMITS.
         SPACE
MAXREC   EQU   256                      MAXIMUM RECORD SIZE
MAXSTRNG EQU   17                       MAXIMUM PRE-BEGIN POST-END SIZE
MAXSYM   EQU   MAXNAME                  MAXIMUM SYMBOL LENGTH
MAXCHAR  EQU   255                      MAXIMUM CHARACTER STRING
MAXGENLN EQU   298
D256     EQU   256                      MAXIMUM MOVE LENGTH
         SPACE
*        DICTIONARY ROUTINE ENTRY PARAMETERS
         SPACE
PHASENTR EQU   0
MACRCALL EQU   2
CALLEND  EQU   4
MACRKWRD EQU   6
MACRPOST EQU   8
PROTOKWD EQU   10
PROTOEND EQU   12
GBLDICTR EQU   14
GBLDICTS EQU   16
LCLDICTR EQU   18
LCLDICTS EQU   20
PARMTBLR EQU   22
SEQSYMBR EQU   24
ORDSYMBR EQU   26
MACRFINI EQU   28
         EJECT
         COPY  JERMSGCD
         EJECT
         JCSECT (X3A00)
* VS1 RELEASE 3 CHANGES
*A026200,192400-192867                                         @OX00407
*D192600                                                       @OX00407
* VS1 RELEASE 3.1 CHANGES
*A532600                                                       @YA03863
*A531100-531280                                                @OY06599
*D532600                                                       @OY06599
*D531100-531280                                                @OX09721
*A710500                                                       @OX09721
*A640000-640140                                                @AZ10934
         JMODID
         SPACE 3
MENTRY   JSAVE BASE=YES
         SPACE
         JENTRY (X3A01=MENTRY)          ENTRY POINT AS EXTERNAL NAME
         SPACE 3
*        INITIALIZE THE GENERATOR
         SPACE
MINIT    EQU   *
         SPACE
         SPACE
*        GET CORE FOR MODULE COMMON
         SPACE
         JGETCORE DBL=GENCOMLN
         SPACE
         LR    R7,R10                   BASE FOR MODULE COMMON SET UP
         XC    GENCOM(GENSPEND-GENCOM),GENCOM CLEAR TO ZEROS
         SPACE
*        PASS CONTROL TO DICTIONARY INITIALIZATION
         SPACE
         DICTCALL   PHASENTR
         SPACE
*        PERMANENTLY CLEAR A REGISTER
         SPACE
         SR    RMOVE,RMOVE              LOW BYTE ONLY TO BE USED
         SPM   RMOVE                    NO INTERRUPTS, PLEASE
         SPACE
*        PREPARE EVAL WORK SPACE
         SPACE
         LA    RCOMP1,ENDSTACK          LOCATE END OF STACK
         ST    RCOMP1,STACKEND          AND SAVE IT
         LA    RCOMP1,STRING1           STRING BUFFER 1
         ST    RCOMP1,STRPTR1             AND SAVE IT
         LA    RCOMP0,STRING2           MASK FOR
         XR    RCOMP0,RCOMP1              FLIPPING TO
         ST    RCOMP0,STRPTR2           STRING BUFFER 2 AND BACK.
         LA    RCOMP0,ERRSTK            GET PTR TO START OF ERROR STK
         ST    RCOMP0,ESTKNDX           INITIALIZE MOVEABLE STACK PTR
         SPACE 3
MINPUT   EQU   *                        INPUT SOURCE
         SPACE
         JGETL FILE=FILE1               GET NEXT INPUT TEXT RECORD
         SPACE
         SPACE
         LR    INPTR,R11                SET UP A BASE FOR
         USING JTEXT,INPTR                INPUT RECORD AND
         ST    INPTR,TXTIN              ALSO SAVE IT FOR LATER USE
         SR    RMOVE,RMOVE              CLEAR A REGISTER FOR LATER
         SPACE
         GOIF  INMACRO,OFF=MINPUT12     NOT IN A MACRO, CONTINUE.
         SET   JGEN,ON                    ELSE INDICATE THAT THIS IS A X
                                          GENERATED STATEMENT.
         SPACE
MINPUT12 EQU   *
         SPACE
         GOIF  JPRONLY,ON=FLUSH90       ALREADY PRINT ONLY
         GOIF  INMACDEF,ON=MINPUT35     GO IF WITHIN MACRO DEFINITIONS
         GOIF  JPSOP,ON=MINPUT20        SEPARATE PSEUDO OPS
         GOIF  (FLUSH1,FLUSH2,FLUSH3),NONE=MFEVAL
         GOIF  FLUSH3,ON=FLUSH05
         GOIF  FLUSH2,ON=FLUSH20
         GOIF  JSYSMAC,ON=FLUSH20       CONTINUE TO PRINT IF SYSMAC
         B     FLUSH25                  EXIT
MINPUT20 GOIF  JTERROR,EQ=FLUSH84       ERROR RECORD
         GOIF  JTEOF,EQ=MEXIT10         END OF FILE
         GOIF  (FLUSH1,FLUSH2,FLUSH3),NONE=MINPUT22
         GOIF  FLUSH1,ON=MINPUT25       BRANCH IF END FOUND
         GOIF  FLUSH3,ON=FLUSH05        BRANCH IF END TO BE GENERATED
         GOIF  JTEEOF,NE=FLUSH10
         GOIF  JSYSMAC,OFF=FLUSH25
         B     FLUSH30
MINPUT22 GOIF  JTEEOF,NE=MINPUT50       BR IF NOT END OF SOURCE INPUT
FLUSH05  SET   FLUSH3,OFF               RESET
         SET   FLUSH1,ON                INDICATE END CARD
         BAL   R3,DMYENDRT              GENERATE END CARD
         B     MINPUT12                 PROCESS AGAIN
MINPUT25 GOIF  JSYSMAC,OFF=FLUSH25      EXIT IF NOSYSMAC
         GOIF  JTEEOF,EQ=FLUSH30        PRINT SYSTEM MACROS
         B     FLUSH10                  PRINT FROM SYSIN
MINPUT35 GOIF  JPSOP,OFF=FLUSH20        TEST IF PSEUDO OPS
         GOIF  JTERROR,EQ=FLUSH84       ERROR RECORD
         GOIF  JTMEND,NE=FLUSH10        BRANCH IF NOT MEND
         SET   INMACDEF,OFF             INDICATE END OF DEFINITION
         B     FLUSH20                  PRINT MEND
FLUSH10  GOIF  JTCPKEY,LO=FLUSH20       SIFT OUT THE PARAMETER
         GOIF  JTPEND,HI=FLUSH20,LO=FLUSH15   RECORDS
         GOIF  JERR,OFF=MINPUT          CHECK PARAMETERS END RECORDS
         L     R1,TXTOUT                FOR ERROR FLAG TRANSFER
         USING MTEXT,R1
         SET   MERR,ON                  ERROR FLAG TO LAST RECORD PUT
         DROP  R1
         B     MINPUT                   NEXT RECORD
FLUSH15  GOIF  JTPROTO,NE=MINPUT        DO NOT PASS THEM
FLUSH20  SET   JPRONLY,ON               SET PRINT ONLY
         BAL   RETURN,PRINT90           PRINT THE RECORD
         SET   JPRONLY,OFF              CLEAN UP THE PRINT FLAGS
         B     MINPUT                   NEXT RECORD
FLUSH25  LA    INPTR,=AL1(D0,D8,JPSOP,D0,JTEOF,D0) SET UP END OF FILE
         B     MEXIT10                  EXIT
FLUSH30  JPUTM FILE=FILE2,ADDR==AL1(D0,D8,JPSOP,D0,JTSICTL,D0)         X
               PUT OUT SPECIAL RCD FOR ICTL SWITCH FOR X51
         B     MINPUT                   READ NEXT RECORD
FLUSH84  EQU   *
         L     R1,TXTOUT                PICK UP PTR TO LAST RCD PUT
         USING MTEXT,R1
         GOIF  MTIOP,JTERROR,EQ=FLUSH85 CONT TOUCH AN ERROR RECORD
         SET   MERR,ON                  INDICATE ERROR TO BE FLAGGED
         GOIF  MPSOP,OFF=FLUSH85        BRANCH IF NOT PSEUDO-OP
         GOIF  MTIOP1,JTANOP,LO=FLUSH85 BRANCH IF NOT A GENERATOR-
         GOIF  MTIOP1,JTMEND,HI=FLUSH85 PROCESSED PSEUDO-OP
         L     R1,ACTRCNT               PICK UP CURRENT ACTR VALUE
         SRL   R1,D1                    HALVE IT ON EDITOR ERROR
         ST    R1,ACTRCNT               SAVE NEW ACTR VALUE
         DROP  R1
FLUSH85  EQU   *                        PASS UNCHANGED
         SPACE
         BAL   RETURN,PRINT90           PRINT A COPY, PLEASE
         B     MINPUT                   GO BACK FOR ANOTHER ONE
FLUSH90  GOIF  FLUSH3,ON=FLUSH05        BRANCH IF END TO BE GENERATED
         GOIF  FLUSH1,OFF=FLUSH85       CHECK IF END STATEMENT FOUND
         GOIF  JSYSMAC,ON=FLUSH85       CHECK IF SYSMAC OPTION IS ON
         B     FLUSH25
MEXIT10  LR    R2,INPTR                 PRESERVE EOF RCD POINTER
         JFRECORE ADDR=FREESTRT         FREE UP DICTIONARY SPACE
         JFRECORE ADDR=(R7)             RETURN MODULE COMMON TO SYSTEM
         SPACE
         LA    R10,GTFILE               ELSE INDICATE GENERATED TEXT
         JPUTM FILE=(R10),ADDR=(R2)     AND MOVE EOF RECORD
         LA    R10,SDFILE               LIKEWISE SYMBOL FILE
         LA    R11,EOFSD                SYMBOL DEFINITION END-OF-FILE
         JPUTM FILE=(R10),ADDR=(R11)
         JPOINT FILE=FILE1,NEXT=START   REWIND FILE1
         JPOINT FILE=FILE3,NEXT=START   REWIND FILE3
         JTRUNC FILE=FILE2              TRUNCATE FILE2  TEXT FILE.  DO X
                                        NOT REPOSITION BECAUSE NEXT    X
                                        PHASE NEEDS END OF FILE.
MGET99   JRETURN ,                      AND EXIT FROM PHASE
         SPACE
EOFSD    DC    H'8',AL1(0,0,JTEOFII,0)  SYMBOL DEFINITION END OF FILE
DMYENDRT JPUTM FILE=FILE2,ADDR=DUMYEND  PUT OUT DUMMY END STATEMENT
         ST    R3,GENREGS               PRESERVE RETURN REGISTER
         ST    R11,TXTOUT               PRESERVE TEXT RECORD POINTER
         L     R12,=A(X3B01)            SET UP TO CALL S.I. PREPROC.
         BALR  R9,R12                   CALL SYMBOL INTERLUDE PREPROC.
         L     INPTR,TXTIN              RESTORE PTR TO LAST TEXT RCD
         CLI   JMSGL,SEV60              CHECK MSGLEVEL
         BH    DONTPUT                  DONT FLAG IF HIGH
         L     R3,TXTOUT                PUTPUT POINTER
         USING MTEXT,R3
         SET   MERR,ON                  FLAG ERROR
         DROP  R3
         JPUTM FILE=FILE2,ADDR==AL1(D0,D12,JPSOP,JNOCNT,JTERROR,D0,D0,DX
               0,D0,SEV60,ERR60,D0) GENERATE GENERATED END DIAGNOSTIC
DONTPUT  L     R3,GENREGS               RESTORE RETURN REGISTER
         BR    R3                       RETURN TO CALLER
         SPACE
         SPACE
MINPUT50 EQU   *
         SPACE
         GOIF  HIGENOP,NOTLO=MFEVAL     TOO HIGH FOR GENERATOR OP, GO  X
                                          PERFORM SUBSTITUTION.
         GOIF  LOGENOP,NOTLO=MLKUP      OK, LOOKUP GENERATOR OP AND    X
                                          PROCESS IT.
         GOIF  JTCOPY,LT=MFEVAL         LET ICTL,ISEQ,OPSYN GO THRU
*              ALL THAT REMAIN ARE ANOP,GBLX,LCLX,COPY
         BAL   RETURN,PRINT10           PRINT IF OPTIONS ALLOW
         B     MINPUT                   GO BACK FOR NEXT RECORD
         SPACE
         DROP  INPTR
         SPACE 3
MFEVAL   EQU   *                        SEND ALL MACHINE AND ASSEMBLER X
                                        OPS OUT FOR FIELD EVALUATION.
         L     FTXTIN,TXTIN             GET INPUT TEXT POINTER
         USING JTEXT,FTXTIN               AND DECLARE AS BASE
         GOIF  JPSOP,OFF=FEVAL10        LOOK ONLY AT PSEUDO-OPS
         GOIF  JTHCMNT,NE=FEVAL10       ONLY LOOK AT HIDDEN COMMENTS
         BAL   RETURN,PRINT30           GO TO PRINT THEM IF REQ'D
         B     MINPUT                   GO BACK FOR NEXT STATEMENT
*        GET A WORK BUFFER AND SAVE THE POINTER TO IT
         SPACE
FEVAL10  EQU   *
         SPACE
         LA    R10,GTFILE               GENERATED TEXT FILE IS OUTPUT
         GOIF  (JSUBNAME,               ANY SUBSTITUTION,              X
               JSUBOPCD,                                               X
               JSUBOPND),                                              X
               ANY=FEVAL22                GO PREPARE FOR FIELD EVAL.
         SPACE
         BAL   RETURN,PRINT25           PUT OUT PRINT IMAGEIF REQD
         B     MLOCTR                   RETURN TO DRIVER
         SPACE
MOVEOP   MVC   JFWORD1(D0),D0(R12)      EXECUTED MNEMONIC MOVE
         USING OPNTRY,R14               BASE FOR COMPARE
OPCOMP   CLC   JFWORD1(D0),OMNEM        REMOTE MNEMONIC COMPARE
         DROP  R14
         SPACE 3
         SPACE 3
FEVAL22  EQU   *                        GET READY FOR SUBSTITUTION
         SPACE
         SET   JPRONLY,ON               PUT PRINT ONLY COPY OF MODEL
         GOIF  JERR,OFF=NOERR           TEST IF ERROR STATEMENT
         SET   JERR,OFF                 DO NOT FLAG PRESUBST
         BAL   RETURN,PRINT10           PRINT IF OPTIONS ALLOW
         SET JERR,ON                    RESET MASTER COPY
         B     PRINTOFF                 GO ON
NOERR    BAL   RETURN,PRINT10           PRINT PRE-SUBSTITUTION COPY
PRINTOFF SET   JPRONLY,OFF              CLEAN UP STMT MASTER COPY
         SPACE
         SR    R11,R11                  SET UP BASE FOR CALC
         GOIF  JTCPR,HHDRLN,EQ=FEVAL23 BRANCH IF NO COMMENTS
         SH    R11,JTCPR                GET DISPL TO COMMENTS START
         B     FEVAL24                  GO CALC COMMENTS,STRNG LEN
FEVAL23  GOIF  JTSPR,HHDRLN,EQ=FEVAL25  BRANCH IF NO STRINGS
         SH    R11,JTSPR                GET DISPL TO STRINGS START
FEVAL24  AH    R11,JTRLI                CALC LENGTH OF COMMENTS,STRS
FEVAL25  LA    R11,MAXGENLN(,R11)       CALC LENGTH OF BUFFER NEEDED
         JPUTL FILE=(R10),BUFREQ=(R11)  REQUEST A BUFFER
         ST    R11,TXTOUT               AND SAVE ITS ADDRESS
         USING MTEXT,FTXTOUT              AND SET A BASE FOR IT.
         SPACE
         MVC   MTEXT(MTHDRLN),JTEXT     MOVE RECORD HEADER TO OUTPUT
         SET   MGEN,ON                  INDICATE GENERATED STATEMENT
         SPACE
*                             NAME FIELD
         SPACE
FEVAL30  EQU   *
         LA    VTXTOUT,MTHDRLN          START OF VARIABLE OUTPUT FIELD
         STH   VTXTOUT,MTNMP            STORE NAME FIELD POINTER
         LH    VTXTIN,JTNMP             PICK UP NAME POINTER
         SPACE
         GOIF  JSUBNAME                 SET CONDITION CODE
         SPACE
         SPACE
FEVAL32  BAL   RETURN,MOVEFLD           MOVE THE FIELD TO OUTPUT
         GOIF  JSUBNAME,OFF=FEVAL40     NO NAME SUBSTITUTION, SKIP
         L     R15,GENRTRN              PICK UP POINTER TO NAME LENGTH
         USING JTOPL,R15                DECLARE AS BASE
         IC    RMOVE,JTOPL              PICK UP FIELD LENGTH
         GOIF  (RMOVE),ZERO=FEVAL40     ZERO LENGTH, SKIP AHEAD
FEVAL33  EQU   *
         LR    R14,RMOVE                SET UP LOOP COUNT REGISTER
FEVAL34  LA    R1,D0(R14,R15)           GET PTR TO NEXT TRAILING CHAR
         CLI   D0(R1),JBLANK            LOOK FOR TRAILING BLANK
         BNE   FEVAL35                  BRANCH ON NON-BLANK
         BCT   R14,FEVAL34              LOOP THRU TRAILING BLANKS
FEVAL35  STC   R14,JTOPL                SAVE FINAL FIELD LENGTH
         GOIF  JTOPL,D8,LE=FEVAL40      SEE IF FIELD LENGTH ALRIGHT
         LA    R12,LOGERR01             GET BASE FOR ERROR LOGGING RTN
         BALR  R9,R12                   MAKE ERROR STACK ENTRY
         DC    AL1(SEV129,ERR129)       ERROR PARAMETERS
         SET   MNMERR,ON                INDICATE BOGUS NAME
         MVI   JTOPL,D8                 GIVE BACK ONLY FIRST 8 CHARS
         SR    VTXTOUT,RMOVE            ADJUST TEXT OUTPUT PTR TO
         LA    VTXTOUT,D8(,VTXTOUT)     REFLECT TRUNCATED NAME
         DROP  R15
         SPACE
*                             OP CODE FIELD
         SPACE
FEVAL40  EQU   *
         SPACE
         LH    VTXTIN,JTOCP             PICK UP INPUT DISPLACEMENT
         STH   VTXTOUT,MTOCP            STORE OUTPUT DISPLACEMENT
         SPACE
         GOIF  JSUBOPCD                 SET CONDITION CODE
         SPACE
         SPACE
FEVAL42  BAL   RETURN,MOVEFLD           MOVE THE FIELD TO OUTPUT
         GOIF  JSUBOPCD,OFF=FEVAL50     NO OP CODE SUBSTITUTION, SKIP.
         L     R15,GENRTRN              POINT TO MNEMONIC LENGTH AND
         USING JTOPL,R15                DECLARE AS BASE.
         IC    RMOVE,JTOPL              PICK UP OP CODE LENGTH
         CH    RMOVE,=H'8'              CHECK FOR VALID FIELD LENGTH
         BH    LOGER128                 BRANCH IF TOO MANY CHARACTERS
         GOIF  (RMOVE),ZERO=LOGER102    BRANCH IF NULL SUBSTITUTION
         XC    JFWORD1(L'JFWORD1+L'JFWORD2),JFWORD1 CLEAR NAME BUFFER
         LA    R1,JTOPND                SET UP STRING START PTR
         AR    R15,RMOVE                SET UP STRING END PTR
         LA    R14,D1                   SET UP BXLE INCREMENT
FEVAL43  CLI   D0(R1),JBLANK            LOOK FOR LEADING BLANK
         LR    R12,R1                   SAVE PTR IN CASE NON-BLANK
         BNE   FEVAL45                  BRANCH IF NON-BLANK
         BXLE  R1,R14,FEVAL43           LOOP THRU LEADING BLANKS
LOGER102 LA    R12,LOGERR01             GET BASE FOR ERROR LOGGING RTN
         BALR  R9,R12                   MAKE ERROR STACK ENTRY
         DC    AL1(SEV102,ERR102)       ERROR PARAMETERS
         B     FEVAL49                  GO FLAG STMT AS BAD
LOGER128 EQU   *
         LA    R12,LOGERR01             GET BASE FOR ERROR LOGGING RTN
         BALR  R9,R12                   MAKE ERROR STACK ENTRY
         DC    AL1(SEV128,ERR128)       ERROR PARAMETERS
         SET   MPRONLY,ON               INDICATE NO HOPE FOR THIS STMT
         L     R15,GENRTRN              RESTORE STARTING POINTER
         MVI   JTOPL,D8                 GIVE BACK ONLY FIRST 8 CHARS
         SR    VTXTOUT,RMOVE            ADJUST TEXT OUTPUT PTR TO
         LA    VTXTOUT,D8(,VTXTOUT)     REFLECT TRUNCATED OP CODE
         B     FEVAL50                  CONTINUE WITH OPERAND
         DROP  R15
FEVAL46A CLI   D0(R1),JBLANK            LOOK FOR MORE TRAILING BLANKS
         BNE   LOGER101                 BRANCH IF NON-BLANK FOUND