         MACRO
&NAME    PSWDACCT &ACCT=,&USER=,&PSWD=,&GROUP=
         LCLA  &VALUE,&CTR,&LEN,&LOOP,&LIM,&COUNT
         LCLC  &CVALUE,&CPSWD,&CREP
         AIF   ('&ACCT' EQ 'LAST').LAST
         DC    AL1(30)     EACH TABLE ENTRY IS 30 BYTES
         AIF   (T'&ACCT  EQ 'O').AC1
.ACCTLP  ANOP
         DC    CL4'&ACCT'
         AGO   .AC2
.AC1     ANOP
         MNOTE 8,'ACCT NOT SPECIFIED....MACRO DEFINITION ABORT'
         AGO   .END
.AC2     ANOP
         AIF   (T'&USER EQ 'O').F1
         DC    CL8'&USER'              USERID
         AGO   .F2
.F1      ANOP
         DC    CL8' '                   USERID
.F2      ANOP
         AIF   (T'&PSWD EQ 'O').C1
&LOOP    SETA  1
&COUNT   SETA  K'&PSWD
&LIM     SETA  &COUNT
&CPSWD   SETC '&PSWD'
.PSWDLP  ANOP
         AIF   (&LOOP GT &LIM).PSWDEND
         AIF   ('&CPSWD'(&COUNT,1) EQ 'A').A
         AIF   ('&CPSWD'(&COUNT,1) EQ 'B').B
         AIF   ('&CPSWD'(&COUNT,1) EQ 'C').C
         AIF   ('&CPSWD'(&COUNT,1) EQ 'D').D
         AIF   ('&CPSWD'(&COUNT,1) EQ 'E').E
         AIF   ('&CPSWD'(&COUNT,1) EQ 'F').F
         AIF   ('&CPSWD'(&COUNT,1) EQ 'G').G
         AIF   ('&CPSWD'(&COUNT,1) EQ 'H').H
         AIF   ('&CPSWD'(&COUNT,1) EQ 'I').I
         AIF   ('&CPSWD'(&COUNT,1) EQ 'J').J
         AIF   ('&CPSWD'(&COUNT,1) EQ 'K').K
         AIF   ('&CPSWD'(&COUNT,1) EQ 'L').L
         AIF   ('&CPSWD'(&COUNT,1) EQ 'M').M
         AIF   ('&CPSWD'(&COUNT,1) EQ 'N').N
         AIF   ('&CPSWD'(&COUNT,1) EQ 'O').O
         AIF   ('&CPSWD'(&COUNT,1) EQ 'P').P
         AIF   ('&CPSWD'(&COUNT,1) EQ 'Q').Q
         AIF   ('&CPSWD'(&COUNT,1) EQ 'R').R
         AIF   ('&CPSWD'(&COUNT,1) EQ 'S').S
         AIF   ('&CPSWD'(&COUNT,1) EQ 'T').T
         AIF   ('&CPSWD'(&COUNT,1) EQ 'U').U
         AIF   ('&CPSWD'(&COUNT,1) EQ 'V').V
         AIF   ('&CPSWD'(&COUNT,1) EQ 'W').W
         AIF   ('&CPSWD'(&COUNT,1) EQ 'X').X
         AIF   ('&CPSWD'(&COUNT,1) EQ 'Y').Y
         AIF   ('&CPSWD'(&COUNT,1) EQ 'Z').Z
         AIF   ('&CPSWD'(&COUNT,1) EQ '0').L0
         AIF   ('&CPSWD'(&COUNT,1) EQ '1').L1
         AIF   ('&CPSWD'(&COUNT,1) EQ '2').L2
         AIF   ('&CPSWD'(&COUNT,1) EQ '3').L3
         AIF   ('&CPSWD'(&COUNT,1) EQ '4').L4
         AIF   ('&CPSWD'(&COUNT,1) EQ '5').L5
         AIF   ('&CPSWD'(&COUNT,1) EQ '6').L6
         AIF   ('&CPSWD'(&COUNT,1) EQ '7').L7
         AIF   ('&CPSWD'(&COUNT,1) EQ '8').L8
         AIF   ('&CPSWD'(&COUNT,1) EQ '9').L9
         AIF   ('&CPSWD'(&COUNT,1) EQ '#').LPOUND
         AIF   ('&CPSWD'(&COUNT,1) EQ '$').LDOLLAR
         AIF   ('&CPSWD'(&COUNT,1) EQ '@').LAT
         AIF   ('&CPSWD'(&COUNT,1) EQ ' ').BLANK
         AIF   ('&CPSWD'(&COUNT,1) EQ '').BLANK
         MNOTE 8,'INVALID CHARACTER SPECIFIED IN PSWD FIELD'
         MEXIT
.A       ANOP
         DC    AL1(00)
&LOOP    SETA  &LOOP+1
&COUNT   SETA  &COUNT-1
         AGO   .PSWDLP
.B       ANOP
         DC    AL1(01)
&LOOP    SETA  &LOOP+1
&COUNT   SETA  &COUNT-1
         AGO   .PSWDLP
.C       ANOP
         DC    AL1(02)
&LOOP    SETA  &LOOP+1
&COUNT   SETA  &COUNT-1
         AGO   .PSWDLP
.D       ANOP
         DC    AL1(03)
&LOOP    SETA  &LOOP+1
&COUNT   SETA  &COUNT-1
         AGO   .PSWDLP
.E       ANOP
         DC    AL1(04)
&LOOP    SETA  &LOOP+1
&COUNT   SETA  &COUNT-1
         AGO   .PSWDLP
.F       ANOP
         DC    AL1(05)
&LOOP    SETA  &LOOP+1
&COUNT   SETA  &COUNT-1
         AGO   .PSWDLP
.G       ANOP
         DC    AL1(06)
&LOOP    SETA  &LOOP+1
&COUNT   SETA  &COUNT-1
         AGO   .PSWDLP
.H       ANOP
         DC    AL1(07)
&LOOP    SETA  &LOOP+1
&COUNT   SETA  &COUNT-1
         AGO   .PSWDLP
.I       ANOP
         DC    AL1(08)
&LOOP    SETA  &LOOP+1
&COUNT   SETA  &COUNT-1
         AGO   .PSWDLP
.J       ANOP
         DC    AL1(09)
&LOOP    SETA  &LOOP+1
&COUNT   SETA  &COUNT-1
         AGO   .PSWDLP
.K       ANOP
         DC    AL1(10)
&LOOP    SETA  &LOOP+1
&COUNT   SETA  &COUNT-1
         AGO   .PSWDLP
.L       ANOP
         DC    AL1(11)
&LOOP    SETA  &LOOP+1
&COUNT   SETA  &COUNT-1
         AGO   .PSWDLP
.M       ANOP
         DC    AL1(12)
&LOOP    SETA  &LOOP+1
&COUNT   SETA  &COUNT-1
         AGO   .PSWDLP
.N       ANOP
         DC    AL1(13)
&LOOP    SETA  &LOOP+1
&COUNT   SETA  &COUNT-1
         AGO   .PSWDLP
.O       ANOP
         DC    AL1(14)
&LOOP    SETA  &LOOP+1
&COUNT   SETA  &COUNT-1
         AGO   .PSWDLP
.P       ANOP
         DC    AL1(15)
&LOOP    SETA  &LOOP+1
&COUNT   SETA  &COUNT-1
         AGO   .PSWDLP
.Q       ANOP
         DC    AL1(16)
&LOOP    SETA  &LOOP+1
&COUNT   SETA  &COUNT-1
         AGO   .PSWDLP
.R       ANOP
         DC    AL1(17)
&LOOP    SETA  &LOOP+1
&COUNT   SETA  &COUNT-1
         AGO   .PSWDLP
.S       ANOP
         DC    AL1(18)
&LOOP    SETA  &LOOP+1
&COUNT   SETA  &COUNT-1
         AGO   .PSWDLP
.T       ANOP
         DC    AL1(19)
&LOOP    SETA  &LOOP+1
&COUNT   SETA  &COUNT-1
         AGO   .PSWDLP
.U       ANOP
         DC    AL1(20)
&LOOP    SETA  &LOOP+1
&COUNT   SETA  &COUNT-1
         AGO   .PSWDLP
.V       ANOP
         DC    AL1(21)
&LOOP    SETA  &LOOP+1
&COUNT   SETA  &COUNT-1
         AGO   .PSWDLP
.W       ANOP
         DC    AL1(22)
&LOOP    SETA  &LOOP+1
&COUNT   SETA  &COUNT-1
         AGO   .PSWDLP
.X       ANOP
         DC    AL1(23)
&LOOP    SETA  &LOOP+1
&COUNT   SETA  &COUNT-1
         AGO   .PSWDLP
.Y       ANOP
         DC    AL1(24)
&LOOP    SETA  &LOOP+1
&COUNT   SETA  &COUNT-1
         AGO   .PSWDLP
.Z       ANOP
         DC    AL1(25)
&LOOP    SETA  &LOOP+1
&COUNT   SETA  &COUNT-1
         AGO   .PSWDLP
.L0      ANOP
         DC    AL1(26)
&LOOP    SETA  &LOOP+1
&COUNT   SETA  &COUNT-1
         AGO   .PSWDLP
.L1      ANOP
         DC    AL1(27)
&LOOP    SETA  &LOOP+1
&COUNT   SETA  &COUNT-1
         AGO   .PSWDLP
.L2      ANOP
         DC    AL1(28)
&LOOP    SETA  &LOOP+1
&COUNT   SETA  &COUNT-1
         AGO   .PSWDLP
.L3      ANOP
         DC    AL1(29)
&LOOP    SETA  &LOOP+1
&COUNT   SETA  &COUNT-1
         AGO   .PSWDLP
.L4      ANOP
         DC    AL1(30)
&LOOP    SETA  &LOOP+1
&COUNT   SETA  &COUNT-1
         AGO   .PSWDLP
.L5      ANOP
         DC    AL1(31)
&LOOP    SETA  &LOOP+1
&COUNT   SETA  &COUNT-1
         AGO   .PSWDLP
.L6      ANOP
         DC    AL1(32)
&LOOP    SETA  &LOOP+1
&COUNT   SETA  &COUNT-1
         AGO   .PSWDLP
.L7      ANOP
         DC    AL1(33)
&LOOP    SETA  &LOOP+1
&COUNT   SETA  &COUNT-1
         AGO   .PSWDLP
.L8      ANOP
         DC    AL1(34)
&LOOP    SETA  &LOOP+1
&COUNT   SETA  &COUNT-1
         AGO   .PSWDLP
.L9      ANOP
         DC    AL1(35)
&LOOP    SETA  &LOOP+1
&COUNT   SETA  &COUNT-1
         AGO   .PSWDLP
.LPOUND  ANOP
         DC    AL1(36)
&LOOP    SETA  &LOOP+1
&COUNT   SETA  &COUNT-1
         AGO   .PSWDLP
.LDOLLAR ANOP
         DC    AL1(37)
&LOOP    SETA  &LOOP+1
&COUNT   SETA  &COUNT-1
         AGO   .PSWDLP
.LAT     ANOP
         DC    AL1(38)
&LOOP    SETA  &LOOP+1
&COUNT   SETA  &COUNT-1
         AGO   .PSWDLP
.BLANK   ANOP
         DC    AL1(255)
&LOOP    SETA  &LOOP+1
&COUNT   SETA  &COUNT-1
         AGO   .PSWDLP
*        DC    CL8'&PSWD'               PSWD
         AGO   .C2
.C1      ANOP
         DC    X'FFFFFFFFFFFFFFFF'      PSWD
.PSWDEND ANOP
&COUNT   SETA  K'&PSWD
&LIM     SETA  8-&COUNT
         AIF   (&LIM EQ 0).C2
         AIF   (&LIM EQ 8).C2
&CREP    SETC '&LIM'
         DC    &CREP.X'FF'
.C2      ANOP
         AIF   (T'&GROUP EQ 'O').P1
         DC    CL8'&GROUP'              GROUP
         AGO   .P2
.P1      ANOP
         DC    CL8' '                   GROUP
.P2      ANOP
         DC    CL1' '                   UNUSED
         AGO   .END
.LAST    ANOP
         DC    X'00'                    LAST ENTRY
.END     ANOP
**********************************************************************
         SPACE 5
         MEND
