FCH2   TITLE   'IEWFETCH...PROGRAM LOADING ROUTINE...FETCH WORK AREA.'
         MACRO
&NAME    IHAFETWK  &DSECT=YES
         AIF   ('&DSECT' EQ 'NO').NODSECT
WKAREA   DSECT
.NODSECT ANOP
WKFETCH  EQU   *                  FETCH WORKAREA
*              THE FOLLOWING SEGMENT DESCRIBES THE STRUCTURE OF THE
*              WORK AREA USED BY FETCH.
*
FTIOB    DS    8F                 IOB USED FOR EXCP REQUESTS
FTIOBSK  DS    2F                 IOB SEEK ADDRESS
*********************
XAREA    DS    0F
XKEY     DC    CL4'FTWA'          FETCH IDENTIFICATION KEY
XFLAGS   DS    0XL4               FETCH CONTROL FLAGS            Y02081
XFLAG1   DS    X                  TRANSLATE/FIX CONTROL FLAGS
* ---------- XFLAG1 BIT DEFINITIONS
NEWIOFLG EQU   X'80'              FRESH I/O REQUEST ISSUED
ACTXTFLG EQU   X'40'              READ-TEXT CCW IS ACTIVE IN CURRENT CP
SYNRDFLG EQU   X'20'              SYNC READ ISSUED (NO PCI)
USDEBFLG EQU   X'10'              USERS DEB COPIED INTO GOTTON CORE
TXTREAD  EQU   X'08'          SIO APPENDAGE TXT READ INDICATOR   YM2867
VAMDEV   EQU   X'04'                ** UCB INDICATES A VIRTUAL   Y02081
*                           IF ON  **  DEVICE IS BEING FETCHED   Y02081
*                                   ** FROM (VAM DATA SET)       Y02081
RPSDEV   EQU   X'02'                ** DEVICE BEING FETCHED FROM Y02081
*                           IF ON  **  SUPPORTS ROTATIONAL       Y02081
*                                   ** POSITION SENSING (RPS)    Y02081
RELERR   EQU   X'01'                ** AN INVALID ADCON ADDRESS  Y02081
*                           IF ON  **  WAS ENCOUNTERED IN THE    Y02081
*                                   ** DIE RELOCATE ROUTINE      Y02081
* --------------
XFLAG2   DS    X                       CONTROL FLAGS - BYTE 2    Y02081
* ---------- XFLAG2 BIT DEFINITIONS                              Y02081
BADREC   EQU   X'80'                ** AN INVALID RECORD         Y02081
*                           IF ON  **  TYPE WAS ENCOUNTERED      Y02081
*                                   ** IN THE DIE ROUTINE        Y02081
TXTFIX   EQU   X'40'                ** THE DIE ROUTINE FOUND THE Y02081
*                           IF ON  **  NEXT TEXT RECORD TO BE    Y02081
*                                   ** OUTSIDE THE PGFIX'D AREA  Y02081
ONETXT   EQU   X'20'                ** THE MODULE BEING READ     Y02081
*                           IF ON  **  CONTAINS ONE TEXT RECORD  Y02081
*                                   ** WITH NO RLD RECORDS       Y02081
PRGFREE  EQU   X'10'                ** PURGE SUBROUTINE          Y02081
*                           IF ON  **  HAS ALREADY               Y02081
*                                   ** FREED RESOURCES.          Y02081
ACRRELOC EQU   X'08'                ** WHEN WE BRANCH TO PCI APG Y02081
*                           IF ON  **  AFTER COMMAND RETRY       Y02081
*                                   ** RELOCATION IS REQD        Y02081
CPLOOP   EQU   X'04'                ** CHANNEL PROGRAM LOOP HAS  Y02081
*                           IF ON  **  BEEN DETECTED BY POST     Y02081
*                                   ** STATUS NORMAL EXIT RTN    Y02018
CTLERR   EQU   X'02'                ** AN INVALID ADDRESS WAS    Y02081
*                           IF ON  **  FOUND IN A CONTROL RECORD Y02081
*                                   ** BY THE DIE ROUTINE        Y02018
IOSBFREE EQU   X'01'                ** IOSB/SRB HAS BEEN         YM8279
*                           IF ON  **  FREEMAINED IN  TERMNATION YM8279
* --------------                                                 Y02081
         DS    2X                 - RESERVED -                   Y02081
*********************
FTSKBUF1 DS    2F                                                Y02081
FTSKBUF2 DS    2F                                                Y02081
FTSKBUF3 DS    2F                                                Y02081
FTSKBUF4 DS    2F                                                Y02081
FTCPSRCH DS    4D                 SEARCH AND TIC CCWS            Y02081
FTRBUF1  DS    32D                RLD BUFFER 1                   Y02081
FTCP1    DS    6D                 CHAN PROG 1                    Y02081
FTRBUF2  DS    32D                RLD BUFFER 2                   Y02081
FTCP2    DS    6D                 CHAN PROG 2                    Y02081
FTRBUF3  DS    32D                RLD BUFFER 3                   Y02081
FTCP3    DS    6D                 CHAN PROG 3                    Y02081
FTECB    DS    1F
FTFXECB  DS    1F                 ECB FOR PGFIX REQUESTS         Y02081
FTTBLPTR DS    1F                 POINTER TO CURRENT FTTBL ENTRY Y02081
FTTBL    DS    9F                 BUFFER TABLE
FTTBL2   EQU   FTTBL+12           2ND ENTRY IN BUFFER TABLE      Y02081
FTTBL3   EQU   FTTBL+24           3RD ENTRY IN BUFFER TABLE      Y02081
FTREGSV  DS    16F                REGISTER SAVE AREA
FTRPTR   DS    1F                 ADDR OF R POINTER
FTFLAGS  DS    0FL8               FETCH CONTROL FLAGS            Y02081
FTFLG1   DS    XL1                FLAG BYTE 1                    Y02081
FTFLG2   DS    XL1                FLAG BYTE 2                    Y02081
FTFLG3   DS    XL1                FLAG BYTE 3                    Y02081
FTFLG4   DS    XL1                FLAG BYTE 4                    Y02081
FTRESTRT DS    1F                 ADDR OF PREVIOUS RBUF USED     Y02081
*                                 IN THE DIE ROUTINE TO LOCATE   Y02081
*                                 LAST TIC-TO ADDR TO SET UP     Y02081
*                                 THE TIC IN THE SRCHID CP FOR   Y02081
*                                 RESTART                        Y02081
FTLASTBF DS    1F                 PTR TO PRIOR BUFR TABLE ENTRY
*
*              EXTENSION TO FETCH WORK AREA
*
XSOMAD   DS    F                  LOWER CORE LIMIT FOR LOAD MODULE
XEOMAD   DS    F                  UPPER CORE LIMIT FOR LOAD MODULE
XLOFIX   DS    F                  LOWER BOUND FOR TEXT AREA FIX REQ
XHIFIX   DS    F                  UPPER BOUND FOR TEXT AREA FIX REQ
XNEXTLOC DS    F                  LOCATION OF NEXT TEXT BYTE READ
XTRANTAB DS    0XL8               CCW TRANSLATION DATA --
XCCWAD   DS    F                  POINTER TO CCW REQ TRANSLATION
XTXTAD   DS    F                  VIRTUAL ADDRESS IN THE CCW
XIDALP1  DS    AL4(XALAREA1)      POINTER TO IDAL BUILD AREA
XIDALP2  DS    AL4(XALAREA2)      POINTER TO ALTERNATE IDAL AREA
XALAREA1 DS    10F                IDAL AREA
XALAREA2 DS    10F                IDAL AREA
XGMLIST  DS    4F                 GETMAIN LIST AREA
XORGDCB  DS    1F                 ORIGINAL LOAD DCB ADDRESS
XIOSBAD  DS    1F                 ADDR OF IOSB/SRB TO BE FREED
XDEBLEN  DS    1F                 SIZE OF MS OBTAINED FOR DEB(INC SP)
XRETSAV  DS    1F                      REGISTER 14 SAVE AREA     Y02081
XREGSV3  DS    1F                      REGISTER 3 SAVE AREA      YM1070
XREGSV6  DS    1F                      REGISTER 6 SAVE AREA      YM1070
XSECTAD  DS    1X                      BUFFER FOR READ/SET       Y02081
*                                      SECTOR COMMANDS WHEN      Y02081
*                                      WHEN FETCHING FROM AN RPS Y02081
*                                      DEVICE                    Y02081
         DS    3X                      RESERVED                  Y02081
XFTCBAD  DS    1F                      ADDRESS OF TCB FETCH IS   Y02081
*                                      RUNNING UNDER (SAVED FOR  Y02081
*                                      USE BY PURGE SUBROUTINE)  Y02081
*----PSEUDO DCB DEFINITION (USED WITH THE COPIED DEB).
XDCBDEBO EQU   44             OFFSET OF DEB ADDR IN DCB          Y02081
         ORG   *-XDCBDEBO     ORG BACK OVER UNUSED FIELDS
XDCBCOPY EQU   *              START OF DCB
         ORG   *+XDCBDEBO     RESTORE LOC COUNTER
XDCBDEBA DS    1F             PSEUDO 'DCBDEBAD' FIELD
*----END OF PSEUDO DCB DEFINITION.
XESTAEPT DS    1F                 ADDRESS SAVED IOSB/SDWA        Y02081
XESTLIST DS    1F                 ESTAE MACRO PARAMETER LIST     Y02081
XIOBSEK1 DS    XL5                IOBSEEK SAVE 1                 Y02081
XIOBSEK2 DS    XL5                IOBSEEK SAVE 2                 Y02081
         DS    2X                 RESERVED                       Y02081
*---PSUEDO SVRB FETCH W.A. POINTER USED TO SET UP CORRECTLY IN ESTAE
*    WHEN WE HAVE AN OVERLAY SUPERVISOR REQUEST. THE FOLLOWING WORD
*    POINTS TO THE FETCH WORK AREA AND IS SET UP AT ESTAE MACRO TIME
*    FOR AN OVERLAY SUPERVISOR REQUEST.  THE ORG BEHIND IT MAKES IT
*    LOOK LIKE ITS IN THE SVRB BY ORGING TO THE SAME OFFSET THE
*    WORK AREA POINTER IS STORED AT IN THE SVRB BY CONTENTS
*    SUPERVISOR.
XESTAWKA DS    1F                 ESTAE PTR TO FETCH W.A.        Y02081
XESTAORG EQU   XESTAWKA-X'74'     OV SUPVR ESTAE PTR             Y02081
         SPACE
*---------------MISC. EQUATES
IDALNTRY EQU   4                  SIZE OF EACH IDAL ENTRY
FIXLOENT EQU   0                  OFFSET TO LOW ENTRY PORTION
FIXHIENT EQU   4                  OPPSET TO HIGH ENTRY PORTION
FIXENTSZ EQU   8                  SIZE OF SIX-LIST ENTRY
ECBERRIN EQU   FTFXECB+3          ECB ERROR INDICATOR
********************* PROGRAM MANAGER WORK AREA
PGMMGR   EQU   X'0594'                                           *TEMP*
         ORG   WKFETCH+PGMMGR     OVERLAY PGM MGR WORK AREA AT   *TEMP*
*                                 CORRECT OFFSET                 *TEMP*
WKPGMMGR EQU   *                  PROGRAM MANAGER WORK AREA
WKCDADDR DS    A                  ADDRESS OF CDE
WKIOADDR DS    A                  ADDRESS OF AREA GETMAINED.  FETCH
*                                 WILL DO I/O INTO THIS AREA
WKFLAG   DS    C                  TASKLIB SEARCH INDICATOR
FLAG     EQU   WKFLAG             USED FOR COMPATIBILITY
WKFLG1   DS    C                  FLAGS FIELDS
WKAUTH   EQU   X'80'              FETCH PLACES THE LIBRARY
*                                 AUTHORIZATION FORM THE DEB HERE
WKSYSREQ EQU   X'40'              USER IS SYSTEM REQUEST
WKFLGS2  DS    2C                 RESERVED
WKREGIS  DS    4F                 USED TO SAVE REGISTERS ACROSS BLDL
WKTCBSE  DS    A                  ADDRESS OF TCB CONTAINING LAST DCB
WKDCBSE  DS    A                  ADDRESS OF LAST DCB SEARCH ARGUMENT
********************* BLDL ENTRY AND MASK
WKBLDE   EQU   *                  BLDL LIST
WKPREFX  DS    4C                 MASK FOR BLDL REQUEST
WKNAME   DS    8C                 THIS IS THE BASE
WKTTRN   DS    4C                 AREA OF A
WKZBYTE  DS    1C                 FORMAT 2 PDS
WKCBYTE  DS    1C                 DIRECTORY ENTRY WITH
WKTTESD  DS    8C                 2 BYTE MODIFIED
WKATTR   DS    2C                 BY BLDL
WKLNTH   DS    5C                       *
WKENTPT  DS    3C                       *
WKTXORG  DS    3C                       *
WKAPFSSI DS    CL6                APF AND SSI INFO IF PRESENT
         ORG   WKAPFSSI           OVERLAY FOR ALISA, NO SCATTER
WKENTBK  DS    3C                 USED IF THE MODULE IS AN ALIAS
WKNAMBK  DS    8C                 AND HAS RENT OR REUS ATTRIBUTES
*                                 AND NO SCATTER
         DS    CL6                APF AND SSI INFO IF PRESENT
         ORG   WKAPFSSI           * OVERLAY FOR WKENTBK
WKSCATR  DS    8C                 USED FOR MODULES
WKSCAPSI DS    CL6                APF AND SSI IF SCATTER ONLY
         ORG   WKSCAPSI           OVERLAY FOR SCATTER ALIAS
WKNAMSC  DS    8C                 HAVE RENT OR REUS ATTRIBUTES
WKENTSC  DS    3C                 WHICH ARE SCATTER LOADED
         DS    CL6                APF AND SSI INFO IF PRESENT
WKMAINEP DS    4C                 USED TO MAKE DSECT CONSISTANT
WKMAINAM DS    8C                 REGARDLESS OF ATTRIBUTES
WKEND    EQU   *                  END OF BLDL FETCH WORK AREA
WKSIZE   EQU   WKEND-WKFETCH      SIZE OF WORK AREA
         MEND
        TITLE 'IEWFETCH...PROGRAM LOADING ROUTINE...EQUATES'
IEWFETCH CSECT
         ENTRY IEWFBOSV
         ENTRY IEWMSEPT
         ENTRY IEWFTPRG                                          Y02081
         ENTRY IEWFTXCK                                          Y02081
         SPACE
*------- ID FLAGS FOR MODULE RECORDS.
CTLFLG   EQU   X'01'               CONTROL RECORD
RLDFLG   EQU   X'02'               RLD RECORD
ENDFLG   EQU   X'04'               END OF MODULE OR END OF SEGMENT
CTLCCW   EQU   8                   OFFSET OF RD-TXT CCW IN CONTROL REC
RLDATA   EQU   16                  OFFSET TO START OF RLD DATA   Y02081
*                                  ON AN RLD RECORD              Y02081
RLDLEN   EQU   6                   OFFSET TO RLD DATA BYTE COUNT Y02081
*                                  FIELD ON AN RLD RECORD        Y02081
RELREQ   EQU   X'E0'               MASK FOR BIT PATTERN IN AN    Y02081
*                                  RLD DATA ITEM WHICH MUST BE   Y02081
*                                  ALL ZEROES TO INDICATE THAT   Y02081
*                                  RELOCATION IS REQUIRED        Y02081
ADCLEN   EQU   X'0F'               IMMEDIATE BYTE USED FOR       Y02081
*                                  ISOLATING ADCON LENGTH        Y02081
RELNEG   EQU   X'02'               NEGATIVE RELOCATION INDICATOR Y02081
SAMERP   EQU   X'01'               BIT INDICATING NEXT RLD ITEM  Y02081
*                                  HAS SAME R&P POINTERS AS THE  Y02081
*                                  CURRENT ITEM                  Y02081
TSTBITS  EQU   X'F0'               MASK FOR UNUSED BITS IN 1ST   Y02081
*                                  BYTE OF CTL/RLD RECORDS (MUST Y02081
*                                  BE ZERO -- TESTED TO DETECT   Y02081
*                                  INVALID RECORD TYPES)         Y02081
*
*------- FETCH RETURN CODES.
RCNORMAL EQU   X'00'               SUCCESSFUL LOAD
RCPRGCHK EQU   X'0B'               PROG CHECK OR LOOP IN FETCH   Y02081
RCNOCORE EQU   X'0C'               NOT ENOUGH STOR SPACE FOR MOD Y02081
RCBADREC EQU   X'0D'               INVALID RECORD TYPE ENCOUNTERED
RCBADADR EQU   X'0E'               INVALID ADDRESS ENCOUNTERED
RCIOERR  EQU   X'0F'               PERMANENT I/O ERROR
*
*------- DCB OFFSETS
DCBDEBAD EQU   44                  OFFSET TO DEB ADDRESS FIELD IN DCB
DCBFIX   EQU   4                   SIZE OF FIX REQMNT FOR DCB
AVTPTR   EQU   28                  AVT POINTERS IN DEB           Y02081
*
*------- VOID (VECTOR OF IOS DRIVERS) OFFSETS                    Y02081
VOIDFTPG EQU   84                  OFFSET TO VOID ENTRY FOR      Y02081
*                                  FETCH PURGE RTN ADDR          Y02081
VOIDFTXK EQU   92                  OFFSET TO VOID ENTRY FOR      Y02081
*                                  FETCH EXTENT CHECK RTN ADDR   Y02081
*
*------- STRING LENGTH OF FETCH CHANL PGMS(INTERNAL CCWS ONLY).
CPSRCHCT EQU   4                   SEARCH CCW COUNT
CP1CT    EQU   5                   FIRST CP CCW COUNT
CP2CT    EQU   5                   SECOND CP CCW COUNT
CP3CT    EQU   5                   THIRD CP CCW COUNT
*
*------- EQUATES FOR CCW HANDLING.
CCWOPR   EQU   0                   COMMAND FIELD
CCWADR   EQU   1                   ADDRESS FIELD                 Y02081
CCWFLG   EQU   4                   CCW FLAGS
CCWLEN   EQU   6                   COUNT FIELD
CCWSZ    EQU   8                   SIZE OF CCW
READOP   EQU   X'06'               READ-DATA COMMAND CODE
IDALFLAG EQU   X'04'               IDAL FLAG (BIT 37 OF CCW)
PCI      EQU   X'08'               PCI BIT FOR CCW FLAGS         YM1082
CMCH     EQU   X'40'               CMD CHAIN BIT FOR CCW FLAGS   YM1082
SILI     EQU   X'20'               SILI BIT FOR CCW FLAGS        YM1082
SRCHTIC  EQU   24                  OFFSET TO TIC CCW IN SRCH CP  Y02081
CPRDRLD  EQU   16                  OFFSET TO READ-RLD CCW IN REG CP
TICOFFST EQU   32                  OFFSET TO TIC FROM CCW START  YM2867
RDCT1AD  EQU   9                   OFFSET TO ADDRESS FIELD OF    Y02081
*                                  FIRST READ COUNT CCW          Y02081
RDCT1FL  EQU   12                  OFFSET TO FLAG FIELD OF       Y02081
*                                  FIRST READ COUNT CCW          Y02081
RDCT2AD  EQU   25                  OFFSET TO ADDRESS FIELD OF    Y02081
*                                  SECOND READ COUNT CCW         Y02081
RDCT2FL  EQU   28                  OFFSET TO FLAG FIELD OF       Y02081
*                                  SECOND READ COUNT CCW         Y02081
RDCNT2   EQU   24                  OFFSET TO 2ND READ COUNT CCW  Y02081
RDRLDAD  EQU   17                  OFFSET TO ADDRESS FIELD OF    Y02081
*                                  READ RLD/CTL RECORD CCW       Y02081
RDRLDFL  EQU   20                  OFFSET TO FLAG FIELD OF       Y02081
*                                  READ RLD/CTL RECORD CCW       Y02081
RDSECAD  EQU   41                  OFFSET TO ADDRESS FIELD OF    Y02081
*                                  READ SECTOR CCW               Y02081
SCHTICAD EQU   25                  OFFSET TO ADDRESS FIELD OF    Y02081
*                                  2ND TIC IN SEARCH CH PGM      Y02081
SCHIDAD  EQU   9                   OFFSET TO ADDRESS FIELD OF    Y02081
*                                  SEARCH ID CCW                 Y02081
TIC      EQU   X'08'               TIC-CCW COMMAND CODE          YM2867
RLDTICOF EQU   16                  OFFSET-CTL/RLD TO NOP/TIC     YM2867
NOP      EQU   X'03'               NOP-CCW COMMAND CODE          YM2867
*
*------- EQUATES FOR VAM CHANNEL PROGRAM CCW HANDLING.
VAMRDRLD EQU   8                   OFFSET TO RD RLD IN VAM C.P.  Y02081
VAMNOPTC EQU   16                  OFFSET TO NOP/TIC IN VAM C.P. Y02081
VAMNOPAD EQU   17                  ADDRESS IN NOP/TIC CCW        Y02081
*                                  IN VAM C.P.                   Y02081
VAMFLAGS EQU   4                   OFFSET TO CCW FLAGS           Y02081
*                                  IN VAM C.P.                   Y02081
VAMTXTAD EQU   1                   OFFSET TO ADDRESS IN TXT      Y02081
*                                  RECORD                        Y02081
VAMCNT   EQU   6                   OFFSET TO TXT COUNT           Y02081
*                                  IN VAM C.P.                   Y02081
RDOPMULT EQU   X'86'               OP CODE FOR MULTI-TRACK READ  YM5962
CPADDRES EQU   16                  CHANNEL PGM ADDRESS IN IOB    Y02081
DCBADDRS EQU   20                  DCB ADDRESS IN IOB            Y02081
ECBADDRS EQU   4                   ECB ADDRESS IN ECB            Y02081
SRCHADDR EQU   1                   ADDR PORTION OF SEARCH CCW    Y02081
SRCHCCW  EQU   9                   ADDR PORTION OF 1ST TIC CCW   Y02081
TICTOADD EQU   17                  ADDR PORTION OF 2ND TIC CCW   Y02081
RLDBUFAD EQU   9                   ADDR PORTION OF READ RLD CCW  Y02081
*
*------- MISC DEFINITIONS
ALL      EQU   X'FF'               MASK FOR ALL BITS IN A BYTE
DEBCORE  EQU   254                 SUBPOOL NUMBER FOR DEB CORE
ADDR     EQU   B'0111'             MASK FOR ADDRESS PART OF REGISTER
HIBYT    EQU   B'1000'             REGISTER HIGH-ORDER BYTE MASK Y02081
KEYZERO  EQU   X'0F'               MASK FOR DEB KEY ZERO
TBLBUFAD EQU   8                   OFFSET OF BUFR PTR IN TBL ENTRY
TBLCPAD  EQU   4                   OFFSET OF CH PGM PTR IN TBL ENTRY
MBB      EQU   3                   EXTENT/BIN PART OF DISK ADDRESS
CCHHR    EQU   3                   CYL/HEAD/REC PART OF DISK ADDRESS
SKSIZ    EQU   5                   LNGTH OF A SEEK FIELD (CCHHR) Y02081
ZERO     EQU   0                   ZERO OFFSET                   Y02081
R14      EQU   56                  OFFSET TO REG 14              Y02081
R1OFFSET EQU   4                   OFFSET TO R1 IN SAVEAREA      Y02018
R2OFFSET EQU   8                   OFFSET TO R2 IN SAVEAREA      Y02018
CVTADDR  EQU   16                  PTR TO CVT ADDR.              Y02081
CURRTCB  EQU   4                   CURRENT TCB PTR.              Y02081
EXCP     EQU   0                   SVC NUMBER FOR EXCP
XLISTADR EQU   16                  OFFSET TO EXTENT LIST ADDR IN CDE
REC0     EQU   0                   INIT VALUE OF R IN CCHHR      A34466
TWENTY   EQU   20                  OFFSET OF DCB ADDR IN IOB       7157
SIXTYEG  EQU   X'68'               IMMEDIATE OPERAND               7157
JOBLIBOF EQU   40                  JOBLIB DCB PTR IN TCB         A34037
MRZEUSBT EQU   X'01'               USED IN DEB FILE MASK          M6068
*                                  TO SHOW MER/ZEUS DEVICE        M6068
RETRY    EQU   4                   ESTAE-INDICATE RETRY          Y02081
FLAGBYTE EQU   0                   1ST BYTE(FLAGS) IN SEGTAB     YM4648
LISTSIZ  EQU   16                  LENGTH OF XGMLIST             YM3247
LASTCTL  EQU   X'40'               LAST CTL RECORD IN BUFFER     Y02081
LASTREC  EQU   X'80'               LAST RECORD HAS BEEN READ     Y02081
RLDEND   EQU   X'0F'               LAST RLD HAS BEEN READ        Y02081
FTIOBFL  EQU   X'02'               PCI FETCH FLAG IN IOB         Y02081
SPINBYTE EQU   13                  OFFSET TO BYTE ON WHICH BIT   Y02081
*                                  SPIN IS PERFORMED IN RLD BUF  Y02081
CNTWT    EQU   X'80'               COUNT BUF PSEUDO WAIT
IOERRBT  EQU   X'20'               BIT IN I/O ECB TESTED AFTER   Y02081
*                                  EXCP -- 0=ERROR, 1=NORMAL     Y02081
SGTBNTLS EQU   4                   OFFSET IN SEGTAB FOR NOTELIST Y02081
*                                  ADDRESS                       Y02081
SGTBTST  EQU   X'40'               SEGTAB TEST INDICATOR BIT     Y02081
SVRBWKA  EQU   X'74'               OFFSET TO FETCH WORKAREA      Y02081
*                                  POINTER IN PROG MGR SVRB      Y02081
POSTIOSB EQU   X'7F'               IOSB NORMAL COMP.  @ZA10583   YM8292
DEBFREE  EQU   X'EF'               TURN OFF DEB GM FLAG          ZA0135
PGMASK   EQU   B'0001'             PGFIX RETURN MASK           @ZA07064
         EJECT
*------- GENERAL REGISTER EQUATES
WKREGF   EQU   0                   WORK REGISTER
WKREGA   EQU   1                   WORK REGISTER
WKREGB   EQU   2                   WORK REGISTER
WKREGD   EQU   4                   WORK REGISTER
WKREGC   EQU   5                   WORK REGISTER                 Y02081
DCBREG   EQU   7                   DCB PTR PASSED TO FETCH BY CALLER
LISTREG  EQU   8                   NOTELIST PTR PASSED BY OVLY SUP
SEGREG   EQU   9                   SEGMENT NO. PASSED BY OVLY SUP
FTBASETR EQU   9                   WORK REGISTER
IDREG    EQU   10                  SUBPOOL ID FOR GETMAIN
FTBASE1  EQU   11                  BASE REGISTER FOR MAINLINE
WKREGE   EQU   12                  WORK REGISTER
FTBASE2  EQU   13                  BASE REGISTER FOR WORK AREA
LINKREG  EQU   14                  RETURN ADDR FOR SUBRTN LINKAGE
CODEREG  EQU   15                  ENTRY POINT ADDR REGISTER
*
*        THE FOLLOWING REGISTERS ARE USED BY FETCH APPENDAGE ROUTINES
*
WKRG0    EQU   0                   WORK REGISTER
WKRG1    EQU   1                   WORK REGISTER
IOSREG   EQU   1                   POINTER TO IOSB               Y02081
IOBREG   EQU   2                   IOB PTR ON ENTRY TO APPENDAGES
WKRG2    EQU   2                   WORK REGISTER                 Y02081
DEBREG   EQU   3                   POINTER TO DEB
WKRG3    EQU   3                   WORK REGISTER
WKRG4    EQU   4                   WORK REGISTER
WKRG5    EQU   5                   WORK REGISTER
WKBASE   EQU   6                   WORKAREA BASE IN DIE          Y02081
WKRG6    EQU   6                   WORK REGISTER                 Y02081
UCBREG   EQU   7                   POINTER TO UCB
WKRG7    EQU   7                   WORK REGISTER                 Y02081
WKRG8    EQU   8                   WORK REGISTER                 Y02081
WKRG9    EQU   9                   WORK REGISTER
WKRG10   EQU   10                  WORK REGISTER
WKRG11   EQU   11                  WORK REGISTER
WKRG12   EQU   12                  WORK REGISTER
WKRG13   EQU   13                  WORK REGISTER
WKRG14   EQU   14                  WORK REGISTER
RETURNRG EQU   14                  RETURN ADDR TO IOS FROM APPENDAGES
WKRG15   EQU   15                  WORK REGISTER
        TITLE 'IEWFETCH...PROGRAM LOADING ROUTINE...PROLOGUE'
***********************************************************************
*                      MODULE SPECIFICATIONS                          *
***********************************************************************
*                                                                     *
*        MODULE-NAME = IEWFETCH                                       *
*                                                                     *
*        DESCRIPTIVE-NAME = PROGRAM FETCH                             *
*                                                                     *
*        STATUS = CHANGE-LEVEL 00                                     *
*                                                                     *
*        FUNCTION = THIS MODULE LOADS AND RELOCATES EXECUTABLE        *
*              PROGRAM MODULES AND OVERLAY SEGMENTS INTO VIRTUAL      *
*              STORAGE FOR:                                           *
*                  1) PROGRAM MANAGER                                 *
*                  2) OVERLAY SUPERVISOR                              *
*                                                                     *
*        NOTES =                                                      *
*                                                                     *
*              DEPENDENCIES = N/A                                     *
*                                                                     *
*              RESTRICTIONS = N/A                                     *
*                                                                     *
*              REGISTER-CONVENTIONS = SEE REGISTER EQUATES ABOVE      *
*                                                                     *
*              PATCH-LABEL = THIS MODULE CONTAINS THE FOLLOWING       *
*                  TWO MAINTENANCE AREAS:                             *
*                       1) FETCHPA1  FOR USE IN MAINLINE CODE         *
*                       2) FETCHPA2  FOR APPENDAGE ROUTINES           *
*                                                                     *
*        MODULE-TYPE = PROCEDURE                                      *
*                                                                     *
*              PROCESSOR = SYSTEM/370 OS/VS2 ASSEMBLER                *
*                                                                     *
*              MODULE-SIZE = APPROXIMATELY 6K BYTES                   *
*                                                                     *
*              ATTRIBUTES = REENTRANT, REUSABLE, REFRESHABLE,         *
*                           PRIVILEDGED, SUPERVISOR STATE, KEY ZERO,  *
*                           RESIDENT IN PAGEABLE LINK PACK AREA,      *
*                           DISABLED (IN DIE ROUTINE ONLY)            *
*                                                                     *
*        ENTRY-POINT = IEWMSEPT                                       *
*                                                                     *
*              PURPOSE = TO LOAD A PROGRAM MODULE                     *
*                                                                     *
*              LINKAGE = BRANCH ENTRY FROM PROGRAM MANAGER            *
*                        THE ENTRY SEQUENCE IS:                       *
*                            L     CVTBASE,16(0,0)                    *
*                            L     R15,CVTFETCH(CVTBASE)              *
*                            BALR  R14,R15                            *
*                                                                     *
*        ENTRY-POINT = IEWFBOSV                                       *
*                                                                     *
*              PURPOSE = TO LOAD AN OVERLAY SEGMENT                   *
*                                                                     *
*              LINKAGE = BRANCH ENTRY FROM OVERLAY SUPERVISOR         *
*                        THE ENTRY SEQUENCE IS:                       *
*                            L     CVTBASE,16(0,0)                    *
*                            L     R15,CVTFBOSV(CVTBASE)              *
*                            BALR  R14,R15                            *
*                                                                     *
*        INPUT = 1) PARAMETERS PASSED IN GENERAL REGISTERS            *
*                   (DESCRIBED IN DETAIL BELOW)                       *
*                2) COMBINED FETCH/PROGRAM MANAGER WORK AREA          *
*                   (SEE DSECT GENERATED BY MAPPING MACRO IHAFETWK)   *
*                                                                     *
*        OUTPUT = SEE DETAILED MODULE DESCRIPTION BELOW               *
*                                                                     *
*        EXIT-NORMAL = L    R15,=F'0'                                 *
*                      BR   R14                                       *
*                      SEE BELOW FOR FURTHER DETAIL                   *
*                                                                     *
*        EXIT-ERROR = L    R15,NON-ZERO ERROR CODE                    *
*                     BR   R14                                        *
*                     SEE EQUATES ABOVE FOR FURTHER DETAIL            *
*                                                                     *
*        EXTERNAL-REFERENCES =                                        *
*                                                                     *
*              ROUTINES = PROGRAM FETCH BRANCH ENTERS THE             *
*                         FOLLOWING SUPERVISOR ROUTINES:              *
*                            1) TTR CONVERT ROUTINE                   *