         MACRO
&NAME    LINEEND  &GEN=
.*CHANGE ACTIVITY= AS FOLLOWS:                                   S21903
.*A104830-104950,107200-107330,312650                            S22027
.*A027410-027500,117820-118160,155420-155520,189010-189160       S99228
.*A199020-199140,297410-297580,298400-299400,334840-334960       S99228
.*A411810,411900                                                 S99228
.*C127600-128000                                                 S99228
.*C330000-330400,429800-429980,700000-702160,719400-719580       S99228
.*A302610-302700,351620-351740,489610-489700,291210-591320       S22029
.*C411300,657400,683800-684600                                   S22029
.*A052650-052750,058610-058720,073230-073350                     S22028
.*A481000                                                        A42376
.*C030400,461600,481600-482600,484600                            A42376
.*A589000                                                         M6293
.*C030400                                                         M6293
.*A057800,164600,167800,250600,260800,275400,280000,280900       S21101
.*A350600,393800,505600,549200,653000,657400                     S21101
.*C030400,106800,129600-134400,141400-141600,151400              S21101
.*C162600-162800,166200-166400,184600-184800,204200,204800       S21101
.*C205200-205600,218800,238200-238800,288000,341600,355400       S21101
.*C368200-368600,398400-398800,399600,400400,432600              S21101
.*C489800-490200,490400-491400,492000,505400,508800              S21101
.*C524000-525000,529000-530200,603600,651200,653800-654600       S21101
.*C716600                                                        S21101
.*A040000,420600                                                  M5953
.*C030400,040000                                                  M5953
.*C030400,216400                                                SA51068
.*A310000,430000                                                SA44892
.*C030400,489800-501200,512600-517400                           SA44892
.*A283000,598400                                                SA44983
.*C599000-601600                                                SA44983
.*C030400,645200                                                SA44894
.*A238200,454200,581800,669200,671000,671400,671800,674400       S22025
.*A676200,685000,686000,689800,690600,691200                     S22025
.*C029200,055000-055200,129200-134800,242800-246000              S22025
.*C300800-301000,335000,412000,489600,490600-490620,490740       S22025
.*C492800,504800,580600-581000,584000,587200-587600              S22025
.*C589198-589266,594200,671800,672000,674200,685200              S22025
.*C719700-719750                                                 S22025
.*D037600,111400,118000,145200-147200,298400-298800              S22025
.*D357000-357200,411400,490810-490870,585800-586400              S22025
.*D598400-598800,670200-670400,674200                            S22025
.*A034800,207800,275200,297800,312600,315800,327600,330400       S22026
.*A336600,346000,347000,351400,352600,356800,452600,522400       S22026
.*A654800,692200,692400,700200                                   S22026
.*C357000-357200,522600-522800                                   S22026
.*D145200-147200,291000,656600                                   S22026
.*A446800                               MODIFIED 11/15/71        A42413
.*A022000,368200,369400,380400,719600                           SA48278
.*A593000                                                       SA49233
.*A369500,719630                                                SA51061
.*C368650                                                       SA51061
.*A448000                               MODIFIED 12/02/71        A42413
.*A448180                                                         M2561
.*C030400                                                         M2561
.*D447600,447800                                                  M2561
.*C663200,664000                                                SA51097
.*C104600                                                       SA51791
.*A366800                                                       SA52517
.*C466800,467800,468200,468600                                  SA54276
.*A469800                                                       SA55941
.*A086220,097620,168010,176007                                  SA48276
.*D168610-168710                                                SA48276
.*A228040                                                       SA50194
.*A022000,064000,119600                                         SA51090
.*C118200-118400,120400,702010                                  SA51090
.*D119000                                                       SA51090
.*A689040                                                       SA52946
.*C172600,173400,413400,414400,A414500                          SA54923
.*A000200,002000,616800,618400                                  SA56617
.*C000400,000410-000426,000600-000800,001000,615200-615400      SA56617
.*D002200-019600                                                SA56617
.*A038410                                                       SA56915
.*C384200                                                       SA57329
.*A049060-049120                                                 A56906
.*C049000                                                        A56906
.*A162000,692200,692400                                          S99244
.*C149400,22220                                                  S99244
.*C466800,467800,468200,468600                                  SA54276
.*A469950,477000,477600                                         SA57685
.*C477000                                                       SA57685
.*C228040                                                       SA58997
.*D591203-591206,591230                                         SA59020
.*D521800-522400,523000,705400                                   S21903
.*A547600                                                       SA57695
.*C470000,547800,552200                                         SA57695
.*D552600-555000                                                SA57695
.*A469950                                                       SA59538
.*C466000                                                       SA59538
.*C062600                                                       SA59027
.*C061000,086300-086301,097680,301800,335200,411775-411795      SA59028
.*C411806-411810,451400,719560                                  SA59028
.*A125400                                                       SA59992
.*A117800                                                       SA61780
.*D121400                                                       SA61780
.*A199080                                                       SA62341
.*A311800                                                       SA61094
.*C046000                                                       SA62408
.*D432926                                                       SA62383
.*A608400                                                       SA62329
.*C609200,609800-610000                                         SA62329
.*451480                                                        SA62984
.*A172400                                                       SA61779
.*C058710                                                       SA61779
.*A411830                                                       SA63959
.*D411809-411812                                                SA63959
.*A036200                                                       SA65392
.*A398610,720091                                                SA62991
.*D 300600                                                      SA61794
.*C 301200-301900                                               SA61794
.*A049000                                                       SA64676
.*A634800,643000                                                SA65359
.*C618470-618480                                                SA65359
.*A701740,701800                                                SA65374
.*A471600,472000                                                SA65357
.*A700010,700900                                                SA65397
.*A613000                                                       OX02181
.*D613800                                                       OX02181
.*C569600-569800                                                SA65389
.*C398510                                                       SA66594
.*A577800                                                       SA65865
.*D577000-577200                                                SA65865
.*A376000                                                       SA65387
.*D376800                                                       SA65387
.*A115200                                                       SA66616
.*A035200                                                       SA65906
.*D689001-689002                                                SA66937
.*A007600,054800,414400,415000,418200,455000,702800,710810       X01004
.*C030800-034400,054800,124440,137800,179000,275500,             X01004
.*C291200-291400,300000-300400,352000-352400,352800,358000,      X01004
.*C398730,413200-414400,414600-415000,432930,534600-536400,      X01004
.*C655660                                                        X01004
.*D006000-006400,022050,034600,055000-055090,124600-124800,      X01004
.*D138000,179200-179400,291600-291800,300600-300630,353000,      X01004
.*D358200,453200-453800,455200,536600,537400-537600              X01004
.*A000000                                                        Y01948
.*C035400,054012,054168,107203,107243,118080,127600,282000,      Y01948
.*C282800,293000,315870,327685,341780,354100,378200,385600,      Y01948
.*C395600,404600,405400,420600,443600,444200,587800,592600,      Y01948
.*C655800,698600-698800,701054,701057                            Y01948
.*D000200-000240,035600,054013-054014,                           Y01948
.*D054175-054182,118100-118120,127800-128000,282200,284800,      Y01948
.*D293200-293400,315880-315910,327690-327695,341784-341788,      Y01948
.*D354120-354140,376600,378400-378600,385800-386000,             Y01948
.*D395800-396000,404800-405000,405600-405800,420640-420680,      Y01948
.*D443800-444000,444400-444600,588000-588200,592800-593000,      Y01948
.*D656000-656200,698200,701055,701058-701059                     Y01948
.*A025600,036000,036220,049200,488800,702020,702030,720091       X02004
.*C030960-034160,035400,036000,064060,120456,294920,             X02004
.*C300400,300740,368300,489490,489550,589163-589165,589179,      X02004
.*C589181,720000                                                 X02004
.*D021000,030800-030840,034180-034920,294930,300900-301000,      X02004
.*D488800-489070,489200,489600                                   X02004
.*C418296,418300                                                 Y00482
* A580200                                                       SA66604
* C301350-301920                                                SA66604
* C329780                                                       SA66598
* A700340                                                       SA65428
* D700370                                                       SA65428
* A432799                                                       SA65874
* A700880                                                       SA66946
* A330020,330146,348000                                         SA66632
* C057800,111200-112400                                         SA67139
* A110600                                                       S167139
* D686100,686150                                                SA62379
* A411720                                                       SA63595
* D411760-411765                                                SA63595
* A056200                                                       OX03963
* A701057                                                       OX03941
* A101600                                                       OY00507
* A054021,054189                                                OY03460
* D053800-054000                                                OY03460
* C330480-330500                                                SA68026
* A236600,297000,428600                                         SA68035
* A168600                                                       SA69087
* D172500                                                       SA69087
* A301290                                                       SA64386
* 376400                                                       @YA04894
* C113400                                                      @SA70316
* C484720                                                      @SA70874
* A552300                                                      @SA69964
* A204000                                                      @SA69968
* C678600                                                      @ZO2X6I0
*A483600                                                       @SA71694
*C411830                                                       @SA71658
*A327000                                                       @SA71963
*A279000                                                       @SA71490
*A137200                                                       @SA61090
*C036070-036090,036095                                         @ZA02096
*A049320                                                       @ZA02096
*C449630                                                       @ZA02095
*A720151                                                       @ZA02095
*A279600                                                       @YA06316
*C330148                                                       @YA06327
*A118080                                                       @YA06889
*A633600                                                       @XA07517
*A117860,118080,124400,580320,587800                           @SA62375
*C149400-149800,222200                                         @SA72446
*A577800                                                       @XA06335
*A469800,469950                                                @YA08108
*C196800                                                       @YA06307
*A575800,577817                                                @YA05167
*C577801,577803-577808,577811-577812,577920                    @YA05167
*A477600                                                       @SA73826
*D137300                                                       @SA73574
*A137400                                                       @SA73574
*C214000                                                       @SA74852
*A117810                                                       @SA74852
*C547920                                                       @SA74852
*D348050,348150                                                @XA09327
*A373600                                                       @XA09327
*C049330,049360                                                @ZA03108
*A646600                                                       @YA09751
*D117863-117866,C119400,A119400,A118100                        @YA10052
*A577950,D577801-577823                                        @YA10237
*C312000-312200                                                @SA75453
*A162550,163000                                                @YA10410
*A118600,A120470                                               @YA10673
*C196800-196950                                                @SA75722
*C118100                                                       @YA10695
*C048400                                                       @SA75471
*A149000                                                       @YA11157
*D149600                                                       @YA11157
*C503900-505200                                                @XA11311
*C312200,312260                                                @YA11162
*D433066-436600,D275600,D347400,D599000,D342400                @YA11151
*C560000                                                       @XA11338
*A190800                                                       @YA11495
*C503900                                                       @OS76474
*C429900-429960                                                @OS76301
*A119200,A119600                                               @OY11504
*D054009-054011                                                @OS76307
*A316800                                                       @OS76271
*A111000                                                       @OY11520
*A162099,C222200                                               @OS76283
*C428680                                                       @OY11499
*C411735,D411766-411767                                        @OS76490
*C188600                                                       @OY12393
*D376100                                                       @OS76479
*C162570                                                       @OY12287
*D163020-163160                                                @OY12287
*D196820-196960                                                @OY12287
*A339600,D340200-340800,C342000,C344600,D345000-345400,C346100 @OZ07786
*A250800,C251800-252000                                        @OY10984
*A374200                                                       @OX11954
*C519000-519800                                                @OY11983
*A023000,603700,653120,710850                                  @XA08073
*C162090,603600,653100,657580-657730                           @XA08073
*A204130                                                       @OZ09265
*D190840,190960                                                @OS76981
*C330280,330286,A330290                                        @OX12505
*C353800                                                       @OX12508
*C621400                                                       @OX12509
*C187000                                                       @OS76996
*A246800                                                       @OY12676
*A689800                                                       @OX12511
*A120568                                                       @OZ09957
*A310200,C311870-311890                                        @OZ09279
*C353800                                                       @OY13656
*A166200                                                       @OX12567
*C643040                                                       @OZ08362
*D643120                                                       @OY13667
*C621400                                                       @OZ08362
*A058800                                                       @OS77837
*D201800-202000,208400-208600                                  @OY14092
*A232000                                                       @OS77835
*A086200,408400,C270600-270800,431400,D409400,A097720          @OY14057
*D250810-250900,251820-252090,C086300-086320                   @OY14057
*C398650-398700                                                @OX12579
*A207200,C657614-657668                                        @OY13632
*A376000                                                       @OS77376
*A493000                                                       @OX14778
*A127350                                                       @OZ14176
*D127230-127350,A133200                                        @OZ14197
*A101640,A101700                                               @OS77954
*A683800,A694800                                               @OX14796
*C166215                                                       @OX16385
*D429900,429930                                                @OZ16530
*A432886                                                       @OS77965
*A029800,451480,C701954,702020                                 @OZ16540
*D035250,035300                                                @OX16693
*A235000                                                       @OX16686
*C133230-133320                                                @OZ17622
*A428685                                                       @OZ18753
*C101641                                                       @OS78332
*A270650                                                       @OX16703
* C001810,012000,035400,035600,454340,701404                   @G36XRIV
*D106800-107200,C107210-107220,162600,288000,A448920           @OX17153
*C036288,A036296,D101641-101655,D101710                        @OZ24288
*C225600                                                       @OX19180
*A127200                                                       @OZ25091
*D133220,133270                                                @OZ25091
*C230000                                                       @OS79864
*D493060-493120                                                @OZ25700
*D166203-166212,D166221                                        @OZ26326
*A451480                                                       @OZ25960
*A036288                                                       @OZ27868
.*A527200                                                      @OY19728
*A522909                                                       @OZ29663
*C216000                                                       @OY19793
*A451400                                                       @OX21187
*A693000                                                       @OZ30260
*A033800                                                       @OY20488
*C719428,719500                                                @OY20488
*A366200                                                       @OY20569
*C242800                                                       @OZ31566
.*****        DEVELOPMENT                                       *******
.*A022460-022520,442600-444700,448186-448193,720160-720187       Y02027
.*C030860,030980                                                 Y02027
.*D033940,442600-445800,448020-448160,448186-448192              Y02027
***********************************************************************
*                                                                     *
         TITLE '&NAME     LINE END APPENDAGE'
&NAME    CSECT
*                                                                     *
***********************************************************************
*TITLE -- LINE END APPENDAGE                                          *
*                                                                     *
         AIF   ('&GEN' NE 'MINI').TAG1
*       MODULE NAME = IGG019Q4 (MINI)                                 *
         AGO   .TAG5
.TAG1    AIF   ('&GEN' NE 'STSP').TAG2
*       MODULE NAME = IGG019Q3 (START/STOP)                           *
         AGO   .TAG5
.TAG2    AIF   ('&GEN' NE 'BISC').TAG3
*       MODULE NAME = IGG019Q2 (BI-SYNC)                              *
         AGO   .TAG5
.TAG3    AIF   ('&GEN' NE 'QTAM').TAG4
*       MODULE NAME = IGG019Q5 (QTAM)                                 *
         AGO   .TAG5
.TAG4    AIF   ('&GEN' NE '').TAG5
*       MODULE NAME = IGG019R0 (BOTH)(BLANK)                          *
.TAG5    ANOP
*                                                                     *
*       DESCRIPTIVE NAME = LINE END APPENDAGE                         *
*                                                                     *
*       COPYRIGHT = 'NONE'                                            *
*                                                                     *
*       STATUS: CHANGE LEVEL 10                                @G36XRIV
*                                                                     *
*FUNCTION -- AS A LOGICAL EXTENSION OF IOS LINE END APPENDAGE OBTAINS *
*   CONTROL WHEN AN I/O INTERRUPT OCCURS WITH ENDING STATUS, WHEN AN  *
*   ERROR IS DETERMINED TO BE PERMANENT BY ERP, OR WHEN AN ERROR IS   *
*   CLEARED BY ERP.                                                   *
*                                                                     *
*ENTRY POINTS -- FIRST EXECUTABLE INSTRUCTION                         *
*                                                                     *
*INPUT -- R2  IOB ADDRESS                                             *
*   R14 RETURN ADDRESS                                                *
*   R15 ENTRY POINT ADDRESS                                           *
*                                                                     *
*OUTPUT -- REGISTERS 0-9,14,15 REMAIN TRANSPARENT TO IOS UPON EXIT    *
*   FROM THIS MODULE                                                  *
*                                                                     *
*EXTERNAL ROUTINES --                                                 *
*   OS POST - TO POST MCP WAIT COMPLETE                               *
*                                                                     *
*   STAGE TWO OF EXIT EFFECTOR - TO SCHEDULE IQE                      *
*                                                                     *
*                                                                     *
*   'TCB REMOVAL ROUTINE' - TO MAKE MCP TCB NON-DISPATCHABLE FOR MP   *
*   65 ONLY.                                                          *
*                                                                     *
*   'IEDQKA02' - I/O GENERATOR SUBROUTINE TO BUILD CONTINUE CHANNEL   *
*   PROGRAMS.                                                         *
*                                                                     *
*   'IEDQTNT' - TO OBTAIN TERMINAL TABLE ENTRY ADDRESS FROM TNT OFFSET*
*                                                                     *
*   'IEAPTRV' - TO CONVERT REAL ADDRESS TO VIRTUAL               X01004
*                                                                X01004
*EXITS-NORMAL --                                                      *
*   B  4(14) - TO SKIP POST AND FREE REQUEST ELEMENT                  *
*   B  8(14) - TO RESTART A CHANNEL PROGRAM                           *
*                                                                     *
*EXITS-ERROR --                                                       *
*   BR  14 TO SCHEDULE ERP UPON 1ST DETECTION OF ERROR                *
*                                                                     *
*TABLES/WORK AREAS -- DSECTS OF CONTROL BLOCKS GENERATED BY MACROS:   *
*   TAVTD                                                             *
*   TLCBD                                                             *
*   TQCBD                                                             *
*   TTRMD                                                             *
*   TTSID                                                             *
*   TCCWD                                                             *
*   TSCBD                                                             *
*   TPRFD                                                             *
*   DCBD                                                              *
*   TRECBD                                                            *
*   TTNTD                                                             *
*   TDEBD                                                             *
*                                                                     *
*ATTRIBUTES -- REFRESHABLE, SUPERVISOR MODE, ENABLED.          @G36XRIV
*                                                                     *
*NOTES -- THE OPERATION OF THIS MODULE DOES NOT DEPEND UPON A         *
*   PARTICUALR INTERNAL REPRESENTATION OF THE EXTERNAL CHARACTER      *
*   SET.                                                              *
*                                                                     *
*   IF A PERMANENT ERROR HAS NOT OCCURRED, ENDING STATUS IS EXAMINED  *
*   TO DETERMINE IF ERP IS TO BE SCHEDULED.  UNUSUAL ENDING STATUS    *
*   RESULTS IN A RETURN TO IOS TO SCHEDULE THE FIRST LOA: OF ERP FOR  *
*   THIS DEVICE.                                                      *
*                                                                     *
*   WHEN ERP ACTION IS NOT REQUIRED, LINE END APPENDAGE OBTAINS THE   *
*   TP OP CODE FOR THE FAILING CCW BY USING THE ADDRESS IN THE CSW AS *
*   AN INDEX ARGUMENT INTO A LIST OF TP OP CODES (LCBTPCD).  THE TP   *
*   OP CODE IS USED AS AN INDEX INTO A BRANCH TABLE, TO TAKE          *
*   SPECIFIC ACTION FOR THIS INTERRUPT.  TWO TABLES ARE EMPLOYED.     *
*   ONE IS FOR NORMAL ENDING STATUS.  THE OTHER FOR ERROR CONDTIONS   *
*   DETTECTED BY ERP.                                                 *
*                                                                     *
*   FOR ERRORS THAT HAVE OCCURRED PRIOR TO TEXT TRANSFER, A ZERO      *
*   LENGTH BUFFER IS POSTED TO MH FOR INMSG/OUTMSG PROCESSING.        *
*                                                                     *
*   IF AN EOB INTERRUPT OCCURS WHILE RECEIVING A MESSAGE, A RESTART   *
*   IS MADE FROM THE APPENDAGE UNLESS MH PROCESSING IS REQUIRED.      *
*   WHEN EOT IS RECEIVED, THE FILLED BUFFER(S) ARE POSTED TO MH       *
*   INDICATING THAT THIS IS END OF MESSAGE.  FOR AN EOB INTERRUPT ON  *
*   OUTPUT, PREVIOUS BUFFERS ARE POSTED TO THE BUFFER RETURN QCB AND  *
*   A RESTART IS ACCOMPLISHED.  THE LAST BUFFER  OF A SUCCESSFULLY    *
*   SENT MESSAGE IS POSTED TO BUFFER DISPOSITION FOR OUTMSG EXITS.    *
*                                                                     *
*   IN THE EVENT OF A TEXT MODE ERROR, THE ABOVE ACTION IS TAKEN      *
*   EXCEPT THAT THE BUFFER REFLECTING THE INTERRUPT IS POSTED TO MH   *
*   TO OBSERVE USER SELECTED OPTIONS.                                 *