         MACRO
&NAME    GETIMAGE &N,&D
         AIF   ('&NAME' EQ '').NONAM
&NAME    DS   0H .
.NONAM   ANOP
         AIF   ('&N' NE '').GEN
         MNOTE 9,'IMAGENAME MISSING OR INVALID'
         MEXIT
.GEN     ANOP
         L     R14,=V(DSF1&N.)
         LM    R15,R1,0(R14) .     RETRIEVE IMAGE CHARACTERISTICS
         AIF   ('&D' EQ '').IOCB
         LA    R14,&D .            POINT TO BUFFER
         AGO   .MVC
.IOCB    ANOP
         L     R14,IOCBIMG .       POINT TO BUFFER
.MVC     ANOP
         MVCL  R14,R0 .            COPY IMAGE INTO USER BUFFER <=======
         SPACE
         MEND
