         MACRO
&NAME    @BLANK &AREA=
.*********************************************************************
&NAME    MVI   &AREA,X'40'
         MVC   &AREA+1(L'&AREA-1),&AREA
.*********************************************************************
         MEXIT
         MEND
