         MACRO
&NAME    @CALL &ROUTINE,&ENTRY=0
.*********************************************************************
.*         MACRO IS USED TO CALL SUBROUTINES                         *
.*********************************************************************
&NAME    LA    R1,&ENTRY
         L     R15,@&ROUTINE
         BALR  R14,R15
.*********************************************************************
           MEND
