         MACRO
&NAME    @DASH &AREA=
.*********************************************************************
&NAME    MVI   &AREA,X'60'
         MVC   &AREA+1(L'&AREA-1),&AREA
.*********************************************************************
         MEXIT
         MEND
