         MACRO
&NAME    @ERROR &ROUTINE,&RETURN,&ERRFLD,&ERRLOC
.*********************************************************************
.*         MACRO IS USED TO CALL ERROR SUBROUTINE                    *
.*         MAINLINE ROUTINES ONLY                                    *
.*********************************************************************
&NAME    MVC   ERRFLD,=CL4'&ERRFLD'
         MVC   ERRLOC,=CL4'&ERRLOC'
         L     R15,@&ROUTINE
         BALR  R14,R15
         B     &RETURN
.*********************************************************************
           MEND
