         MACRO
&NAME    @FILL &AREA=,&CHAR=40
.*********************************************************************
&NAME    MVI   &AREA,X'&CHAR'
         MVC   &AREA+1(L'&AREA-1),&AREA
.*********************************************************************
         MEXIT
         MEND
