         MACRO
&NAME    @FMTREG &REG,&FWORD,&DWORD,&TRTAB
*********************************************************************
*                                                                   *
*       MACRO IS USED TO FORMAT A REGISTER FOR PRINTING             *
*                                                                   *
*********************************************************************
*                                                                   *
*       THE AREAS POINTED TO BY &FWORD AND &DWORD                   *
*       SHOULD BE DEFINDED AS SHOWN BELOW:                          *
*                                                                   *
*       *                                                           *
*                DS    0F                                           *
*       FWORD    DS    XL5                                          *
*       *                                                           *
*                DS    0D                                           *
*       DWORD    DS    XL9                                          *
*       *                                                           *
*                                                                   *
*********************************************************************
*                                                                   *
*       THE FORMAT OF THE TRANSLATE TABLE NEEDED TO FORMAT          *
*       THE REGISTER FOR PRINTING IS SHOWN BELOW                    *
*                                                                   *
*       *                                                           *
*       HEXTAB   DS    0XL256                                       *
*       *                  ' 0 1 2 3 4 5 6 7 8 9 A B C D E F'       *
*       ROW0TOE  DC    240XL1'40'                                   *
*       ROWF     DC    XL16'F0F1F2F3F4F5F6F7F8F9C1C2C3C4C5C6'       *
*       *                  ' 0 1 2 3 4 5 6 7 8 9 A B C D E F'       *
*       *                                                           *
*                                                                   *
*********************************************************************
         LCLC  &FLEN,&DLEN
&FLEN    SETC  '(5)'
&DLEN    SETC  '(9)'
&NAME    XC    &FWORD,&FWORD
         XC    &DWORD,&DWORD
         ST    &REG,&FWORD
         UNPK  &DWORD.&DLEN,&FWORD.&FLEN
&DLEN    SETC  '(8)'
         TR    &DWORD.&DLEN,&TRTAB
         MEND
