         MACRO
&NAME    @MVC   &MOUT,&MIN
.*********************************************************************
&NAME    MVI   &MOUT,X'40'
         MVC   &MOUT+1(L'&MOUT-1),&MOUT
         MVC   &MOUT+0(L'&MIN),&MIN
.*********************************************************************
         MEXIT
         MEND
