         MACRO
&NAME    @ZERO  &AREA=
.*********************************************************************
&NAME    MVI   &AREA,X'00'
         MVC   &AREA+1(L'&AREA-1),&AREA
.*********************************************************************
         MEXIT
         MEND
