         MACRO
&NAME   ELSEIF &P1,&P2,&P3,&P4,&P5,&P6,&P7,&P8,&P9,&P10,&P11,&P12,&P13,*
               &P14,&P15,&P16,&P17,&P18,&P19,&P20,&C=
.*#-------------------------------------------------------------------*
.*#     ELSEIF MACRO FOR STRUCTURED PROGRAMMING                       *
.*#----------------------------------------------------23-09-80-RS----*
.*#
.*#   FUNCTION:    STANDS ON THE PLACE OF AN 'ELSE' AND STARTS A NEW
.*#                CONDITION CLAUSE
.*#
.*#   MODEL:       ELSEIF  COND1
.*#                        COND1,OP1,COND2
.*#                        COND1,OP1,COND2,OP2,COND3,...,CONDN
.*#
.*#                -   CONDI : A VALID ASSEMBLE INSTRUCTION WITH
.*#                            MENOTECNIC CONDITION CODE (IN BRACKETS)
.*#                            EXAMPLE: (TM,SWITCH,X'04',O)
.*#                            FOR COMPARE OPERATIONS THE CONDITION-
.*#                            CODE WILL BE PUT BETWEEN THE OPERANDS
.*#                            EXAMPLE: (CLC,FIELD1,EQ,FIELD2)
.*#                -   OPI:    IS ONE OF THE LOGICAL OPERANDS 'AND' OR
.*#                            'OR'
.*#                            DO NOT MIX 'AND' AND 'OR' OPERANDS IN
.*#                            THE SAME ELSEIF.
.*#
.*#--------------------------------------------------------------------
         LCLA  &I              INDEX FOR STRING SCANNING
         LCLA  &N              TOTAL NESTING LELVEL
         LCLC  &OPND
         COPY  IFGLO
.*
&MACNA   SETC  'ELSEIF'
.*
         AIF   ('&P1' EQ '').FEHL17      FORMAL TEST
.*--------------------------------------------------------------------*
.*       GENERATE BRANCH TO ENDIF                                     *
.*--------------------------------------------------------------------*
         AIF ('&SYSPARM' EQ '').OBR00
         AIF ('&SYSPARM'(1,2) EQ 'NO').OBR00
         AGO .OBR00
&NAME    SVDOC   COM=CONT,C=&C,                                        *
               &P1,&P2,&P3,&P4,&P5,&P6,&P7,&P8,&P9,&P10,&P11,&P12,&P13,*
               &P14,&P15,&P16,&P17,&P18,&P19,&P20
.*
.OBR00   ANOP
         AIF   ('&IFENDLB(&IFLEVEL)' NE '').NOEND  KEIN ENDIF
&IFLABEL SETA  &IFLABEL+1
         AIF   (&IFLABEL GE &IFLIMIT).FEHL06
&IFENDLB(&IFLEVEL) SETC '&IFLABEL'
.*
.NOEND   ANOP
&OPND    SETC  '&IFPRAEF&IFENDLB(&IFLEVEL)'
         B     &OPND                       BRANCH TO ENDIF
.*--------------------------------------------------------------------*
.*       GENERATE TARGET FOR BRANCH ON ELSE                           *
.*--------------------------------------------------------23-09-80-RS-*
&OPND    SETC  '&IFPRAEF&IFFALSE(&IFLEVEL)'
&OPND    DS    0H                          TARGET FOR BRANCH ON ELSE
.*--------------------------------------------------------------------*
.*       GENERATE NEXT ELSE LABEL                                     *
.*--------------------------------------------------------23-09-80-RS-*
&IFLABEL SETA  &IFLABEL+1
         AIF   (&IFLABEL GE &IFLIMIT).FEHL06
.*
&IFFALSE(&IFLEVEL) SETC '&IFLABEL'         ID FOR NEXT ELSE ON LEVEL
.*--------------------------------------------------------------------*
.*       GENERATE TRUE LABEL                                          *
.*--------------------------------------------------------23-09-80-RS-*
&IFLABEL SETA  &IFLABEL+1
         AIF   (&IFLABEL GE &IFLIMIT).FEHL06
&IFTRUE  SETC  '&IFLABEL'                  TRUE LABEL FOR AND /OR
.*--------------------------------------------------------------------*
.*       CALL IF-PROCESSOR TO ANALYZE CONDITION                       *
.*--------------------------------------------------------------------*
         IFPRO &IFTRUE,&IFFALSE(&IFLEVEL),&P1,&P2,&P3,&P4,&P5,&P6,&P7, *
               &P8,&P9,&P10,&P11,&P12,&P13,&P14,&P15,&P16,&P17,&P18,   *
               &P19,&P20
.*--------------------------------------------------------------------*
.*       SET TRUE LABEL                                               *
.*--------------------------------------------------------------------*
&OPND    SETC  '&IFPRAEF&IFTRUE'
&OPND    DS    0H                        TARGET FOR BANCH ON NOT TRUE
         AGO   .MACEND
.*
         COPY IFERR
.*
.MACEND  ANOP
         MEXIT
         MEND
