         MACRO
&NAME    ELSE  &COMMENT,&C=
.*#-------------------------------------------------------------------*
.*#  ELSE: MACRO FOR STRUCTURED PROGRAMMING                           *
.*#-------------------------------------------------------------------*
.*#                                                                   *
.*#  FUNCTION: IF ALL PRECEDING CONDITIONS IN THE 'IF' OR 'ELESIF'    *
.*#            MACROS OF THE SAME NESTING LEVEL TURN OUT TO BE        *
.*#            NOT FULLFILLED, THE CODE AFTER THE 'ELSE' MACRO        *
.*#            WILL BE EXECUTED.                                      *
.*#                                                                   *
.*#  CODING:   ELSE     (NO OPERANDS)                                 *
.*#                                                                   *
.*#-------------------------------------------------------------------*
         COPY  IFGLO
         LCLC  &OPND
         LCLA  &N
.*--------------------------------------------------------------------*
.*       GENERATE BRANCH TO ENDIF                                     *
.*--------------------------------------------------------23-09-80-RS-*
.*
&MACNA   SETC  'ELSE'
.*
         AIF ('&SYSPARM' EQ '').OBR00
         AIF ('&SYSPARM'(1,2) EQ 'NO').OBR00
         AGO .OBR00
&NAME    SVDOC  COM=CONT,C=&C
.OBR00   ANOP
         AIF   ('&IFENDLB(&IFLEVEL)' NE '').NOEND  KEIN ENDIF
&IFLABEL SETA  &IFLABEL+1
.*
         AIF   (&IFLABEL GE &IFLIMIT).FEHL06
&IFENDLB(&IFLEVEL) SETC '&IFLABEL'
.*
.NOEND   ANOP
&OPND    SETC  '&IFPRAEF&IFENDLB(&IFLEVEL)'
         B     &OPND                       BRANCH TO ENDIF
.*--------------------------------------------------------------------*
.*       GENERATE TARGET FOR BRANCH ON ELSE                           *
.*--------------------------------------------------------23-09-80-RS-*
&OPND    SETC  '&IFPRAEF&IFFALSE(&IFLEVEL)'
&OPND    DS    0H                          TARGET FOR BRANCH ON ELSE
.*--------------------------------------------------------------------*
.*       SIGNAL TO ENDIF: GENERATE NO ELSE LABEL                      *
.*--------------------------------------------------------23-09-80-RS-*
&IFFALSE(&IFLEVEL) SETC ''
         AGO   .MACEND
.*
         COPY  IFERR
.*
.MACEND  ANOP
         MEXIT
         MEND
