         MACRO
&NAME    ENDDO &COMMENT,&C=
.*#-------------------------------------------------------------------*
.*# ENDDO: CLOSE A DO GROUP IN STRUCTURED PROGRAMMING                 *
.*#-------------------------------------------------------------------*
.*#                                                                   *
.*# FUNCTION: CLOSES A DO-LOOP   (= DO GROUP)                         *
.*#                                                                   *
.*#                                                                   *
.*# CODING:   ENDDO           (NO PARAMETERS)                         *
.*#                                                                   *
.*#                                                                   *
.*#-------------------------------------------------------------------*
         COPY  IFGLO
         LCLC  &OPND
         LCLA  &N
.*
&MACNA   SETC  'ENDDO'
.*
         AIF   (&DOLEVEL GT 0).OBR20
    MNOTE 12,' ??????  ADIOS LOGIC !!!,     EMERGENCY MESSAGE FROM STRU*
               CTURED PROGRAMMING SYSTEM.'
         MEXIT
.*
.OBR20   ANOP
         AIF ('&SYSPARM' EQ '').OBR00
         AIF ('&SYSPARM'(1,2) EQ 'NO').OBR00
         AGO     .OBR00
&NAME    SVDOC   COM=END,C=&C
.OBR00   ANOP
.*--------------------------------------------------------------------*
.*       BRANCH BACK TO START IF FROM-REGISTER IS NOT ZERO            *
.*--------------------------------------------------------23-09-80-RS-*
.*
         AIF   ('&DOFROM(&DOLEVEL)' EQ '').WHILE
&OPND    SETC  '&DOFROM(&DOLEVEL),&IFPRAEF&DOSTART(&DOLEVEL)'
         BCT   &OPND                       BRANCH BACK TO START OF LOOP
         AGO   .LOOPEND
.*--------------------------------------------------------------------*
.*       BRANCH BACK TO START OF LOOP IN CASE OF WHILE CONTROL        *
.*--------------------------------------------------------23-09-80-RS-*
.WHILE   ANOP
&OPND    SETC  '&IFPRAEF&DOSTART(&DOLEVEL)'
         B     &OPND                       BRANCH BACK TO START OF LOOP
.*--------------------------------------------------------------------*
.*       GENERATE TARGET LABEL TO LEAVE THE LOOP (PSEUDO ELSE)        *
.*--------------------------------------------------------23-09-80-RS-*
.LOOPEND ANOP
&OPND    SETC  '&IFPRAEF&DOENDLB(&DOLEVEL)'
&OPND    DS    0H                          TARGET TO LEAVE THE LOOP
.*--------------------------------------------------------------------*
.*       RESET FUNCTIONS FOR THIS DO LEVEL                            *
.*--------------------------------------------------------23-09-80-RS-*
.RESET   ANOP
&DOTRUE  SETC  ''
&DOFALSE(&DOLEVEL) SETC ''
&DOENDLB(&DOLEVEL) SETC ''
&DOSTART(&DOLEVEL) SETC ''
&DOFROM(&DOLEVEL)  SETC ''
&DONAME(&DOLEVEL)  SETC ''
&DOLEVEL SETA  &DOLEVEL-1
         AGO   .MACEND
.*
.MACEND  ANOP
         MEXIT
         MEND
