         MACRO
&NAME    X2CHRTAB
         GBLB  &X2CHR
         LCLC  &NAM$
         LCLB  &X2CHRL
&X2CHRL  SETB  1
         AIF   (&X2CHR).BP02
&X2CHR   SETB  1
&X2CHRL  SETB  0
.BP02    AIF   ('&NAME' EQ '').NAM1
&NAM$    SETC  '&NAME'
         AGO   .BEG
.NAM1    ANOP
&NAM$    SETC  'X2CHRTAB'
.BEG     ANOP
         ORG   *-240                    SET TABLE ORIGIN
&NAM$    DS    0CL256                   TABLE NAME
         DS    CL240                    IGNORE UNUSED VALUES
         DC    10AL1(*-&NAM$)           NUMERIC TRANSLATION VALUES
         DC    6AL1(*-&NAM$.-57)        HEX VALUE A-F TRANSLATION
         AIF   (&X2CHRL).BP03
.BP03    ANOP
         MEND
