         MACRO
&NAME    CONVERT  &REG
***            CONVERT HEX CHARACTERS TO PRINTABLE FORMAT   PMCF.
***            CONVERT (TO,FROM,LENGTH)
&NAME    DS    0H                      ALIGN ON HALF-WORD
         LA    14,*+56                 LOAD RETURN ADDRESS
         MVO   0(2,&REG(1)),0(1,&REG(2)) ADJUST OFFSET
         MVN   1(1,&REG(1)),0(&REG(2)) SET NUMERIC CHAR.
         NI    1(&REG(1)),X'0F'        FLIP UNWANTED BITS OFF
         TR    0(2,&REG(1)),*+20       TRANSLATE THE BYTE
         LA    &REG(1),2(0,&REG(1))    BUMP UP REGISTER
         LA    &REG(2),1(0,&REG(2))    BUMP UP REGISTER
         BCT   &REG(3),*-30            CONVERT AGAIN IF REG. NZERO
         BCR   15,14                   BRANCH TO EXECUTABLE INST.
         DC    C'0123456789ABCDEF'     CHARACTER STRING FOR TR INST.
         MEND
