         MACRO
&NAME    ANYMOD &LOAD=,&CALL=,&DELETE=,&LIST=,&C=8
*/***********************************************************@ZM00952*/
*/*           ANYMOD                                         @ZM00952*/
*/*OLTEP VS2                                                 @ZM00952*/
*/*                                                          @ZM00952*/
&NAME    BRING LOAD=&LOAD,CALL=&CALL,DELETE=&DELETE,LIST=&LIST,C=&C
         MEND
