* /* MACCOMP VS2 MVS/SYSTEM EXTENSIONS SC1CL/D16/POK         @G50IPXQ*/
* /* MACSTAT VS2 MVS/SYSTEM EXTENSIONS VS02296,G50DPXQ       @G50IPXQ*/
         MACRO
&NAME    ASCBCHAP  &POSIT,&POSIT2
* /* MACDATE = 03/07/80                                      @G81LPXU*/
.*   COPYRIGHT =                                               @G50IPXQ
.*       5740-XYN COPYRIGHT IBM CORP 1977,1980;                @G81LPXU
.*       LICENSED MATERIAL-PROGRAM; PROPERTY OF IBM;           @G50IPXQ
.*       REFER TO COPYRIGHT INSTRUCTIONS FORM NUMBER           @G50IPXQ
.*       G120-2083.                                            @G50IPXQ
.*
.*    STATUS = OS/VS2 JBB1126                                  @G81LPXU
         AIF   ('&POSIT' EQ '').ERR1
         AIF   ('&POSIT2' NE '').ERR2
         AIF   ( ('&POSIT' NE 'MOVE') AND ('&POSIT' NE 'ADD')          *
               AND ('&POSIT' NE 'DELETE')                              *
               AND ('&POSIT' NE 'EXMOVE') ).ERR                @G50IPXQ
         AIF   ('&POSIT' NE 'EXMOVE').X0                       @G50IPXQ
&NAME    LA    0,3(0,0)                EXMOVE OPTION ENT CODE  @G50IPXQ
         AGO   .X3                                             @G50IPXQ
.X0      ANOP                                                  @G50IPXQ
         AIF   ('&POSIT' NE 'MOVE').X1
&NAME    SR    0,0                     ENTRY CODE FOR MOVE OPTION
         AGO   .X3
.X1      ANOP
         AIF   ('&POSIT' NE 'ADD').X2
&NAME    LA    0,1(0,0)                ENTRY CODE FOR ADD OPTIO@YM02296
         AGO   .X3
.X2      ANOP
&NAME    LA    0,2(0,0)                CODE FOR DELETE OPTION  @YM02296
.X3      ANOP
         L     15,CVTPTR(0,0)          ADDRESS OF CVT          @YM02296
         L     15,CVTVEAC0-CVTMAP(,15) ADDRESS OF ASCBCHAP ROUTINE
         BALR  14,15                   INVOKE ASCBCHAP
         MEXIT
.ERR     IHBERMAC 1001,,&POSIT         ISSUE MNOTE, INVALID OPERAND
         MEXIT
.ERR1    IHBERMAC 1006,POSITIONAL      ISSUE MNOTE, MISSING OPERAND
         MEXIT
.ERR2    IHBERMAC 1001,,&POSIT2        ISSUE MNOTE, MORE THAN ONE OPRND
         MEND
