*/* START OF SPECIFICATIONS ******************************************/
*/*                                                                  */
*/* $MAC(BLSRSST) COMP(SC132) PROD(JIP1329): Special Symbol Table    */
*/*                                                                  */
*/* COPYRIGHT= 5740-XYN, 5740-XYS Copyright IBM Corporation 1982.    */
*/*            Licenced material-Program property of IBM,            */
*/*            Refer to copyright instructions form number G120-2083 */
*/*                                                                  */
*/* FUNCTION= Describe the special symbol table.                     */
*/*                                                                  */
*/*   CHANGE ACTIVITY=                                               */
*/* $L0=SYMALIAS,HIP2102,80269,DSDPRW: Recognize symbolic aliases    */
*/* $L1=PEAKARCH,HIP2102,81020,DSDPRW: Extended system storage       */
*/* $P1=PUU0527,HIP2102,81080,DSDPRW: Correct micro-fiche flags      */
*/*                                                                  */
*/* END OF SPECIFICATIONS ********************************************/
*   %GO TO SSTPLS;                  /* By-pass assembler code
         MACRO  ,                                                  @P1C
&NAME    BLSRSST
SST      DSECT ,                       IPCS SPECIAL SYMBOL TABLE
&NAME    DS    0D                      ALIGNED ON DOUBLEWORD
SSTID    DC    CL3'SST'                TABLE IDENTIFIER
SSTVER   DC    AL1(SSTVERSN)           VERSION OF FORMAT
SSTVERSN EQU   1                       ORIGINAL FORMAT OF TABLE
SSTCS    DC    CL8'SSTCSECT'           CSECT IDENTIFIER
SSTLVL   DC    CL8'&SYSPARM '          LEVEL IDENTIFIER
SSTDIM   DC    F'1'                    DIMENSION OF TABLE
         DS    0F                      ALIGNED ON FULLWORD
SSTS     DS    0XL4                    SYMBOL DEFINITION ARRAY
SSTST    DC    FL1'0'                  TYPE OF SUFFIX
SSTST01  EQU   1                       ASID
SSTST02  EQU   2                       ASID AND COUNT
SSTST03  EQU   3                       CPU ADDRESS
SSTST04  EQU   4                       UNIT ADDRESS
SSTST05  EQU   5                       ASN-SECOND-TABLE INDEX      @L1A
SSTSLEN  DC    FL1'0'                  LENGTH OF PREFIX
SSTSOFF  DC    Y(0)                    OFFSET OF PREFIX
         MEND  ,                       End PLS remark                */
*   %SSTPLS:                        /* By-pass assembler code        */
*       IF SSTSTORAGE=''            /* No scope/storage class        */
*       %THEN                       /* Default scope/storage         */
*     %SSTSTORAGE='BASED(DUTSSTP)'; /* ->SPECIAL SYMBOL TABLE    @P1C*/
*%INCLUDE SYSLIB(BLSRDUT);          /* DUMP PROCESSING TABLE         */
*   DECLARE                         /* SPECIAL SYMBOL TABLE          */
*     SSTIDENT CHARACTER(3) CONSTANT('SST'),/* IDENTIFIER            */
*     1 SST SSTSTORAGE BOUNDARY(DWORD),/* SPECIAL SYMBOL TABLE       */
*      2 SSTID CHARACTER(3),        /* TABLE IDENTIFIER              */
*      2 SSTVER UNSIGNED BINARY(8), /* VERSION OF TABLE              */
*      2 SSTCSECT CHARACTER(8),     /* CSECT IDENTIFIER              */
*      2 SSTLEVEL CHARACTER(8),     /* LEVEL IDENTIFIER              */
*      2 SSTDIM UNSIGNED BINARY(32),/* NUMBER OF SYMBOLS DEFINED     */
*/*------------------------------------------------------------------*/
*/*    Special symbol definition array - Sorted by prefix            */
*/*------------------------------------------------------------------*/
*
*      2 SSTS(1) BOUNDARY(WORD),    /* SYMBOL DEFINITION ARRAY       */
*       3 SSTST UNSIGNED BINARY(8), /* TYPE OF SUFFIX                */
*       3 SSTSLEN UNSIGNED BINARY(8),/* LENGTH OF PREFIX             */
*       3 SSTSOFF POINTER(15),      /* OFFSET OF PREFIX              */
*     SSTPREF BASED CHARACTER(*),   /* PREFIX CHARACTERS             */
*     SSTVERSN UNSIGNED BINARY(8) CONSTANT(1),/* ORIGINAL FORMAT OF
                                       TABLE (FIELD SSTVER)          */
*/* Codes placed in field SSTST describe the suffix                  */
*
*     SSTST01 UNSIGNED BINARY(8) CONSTANT(1),/* ASID                 */
*     SSTST02 UNSIGNED BINARY(8) CONSTANT(2),/* ASID AND COUNT       */
*     SSTST03 UNSIGNED BINARY(8) CONSTANT(3),/* CPU ADDRESS          */
*     SSTST04 UNSIGNED BINARY(8) CONSTANT(4),/* UNIT ADDRESS     @L1C*/
*     SSTST05 UNSIGNED BINARY(8) CONSTANT(5);/* AST INDEX        @L1A*/
