         MACRO
&NAME    BRPRTMSG &ADDR,&LN
.*A001200,008600-008920,009100                                   Y02006
.*C009500                                                        Y02006
.***  GLOBAL VARIABLE &BALMOD INDICATES IF BAL MODULE OR PLS MODULE **
         GBLB  &BALMOD                                           Y02006
         AIF   ('&LN'(1,1) EQ '(').LN1
&NAME    LA    R2,&LN              LOAD LENGTH TO R2
         AGO   .LN2
.LN1     AIF   ('&LN'(2,2) EQ 'R2').LN3
&NAME    LR    R2,&LN              LOAD LENGTH TO R2
         AGO   .LN2
.LN3     ANOP
&NAME    DS    0H
.LN2     AIF   ('&ADDR' EQ '').LOAD
         AIF   ('&ADDR'(1,1) EQ '(').ADDR2
         LA    R1,&ADDR            LOAD ADDR TO R1
         AGO   .LOAD
.ADDR2   AIF   ('&ADDR'(2,2) EQ 'R1').LOAD
         LR    R1,&ADDR(1)         LOAD ADDR TO R1
.LOAD    ANOP
         AIF   (&BALMOD).BALMSG    BRANCH IF BAL MODULE          Y02006
         L     R15,APRTMSG(,COMBASE) LOAD ADDR OF PRTMSG         Y02006
         AGO   .CALMSG                                           Y02006
.BALMSG  ANOP                                                    Y02006
         L     R15,APRTMSG         LOAD ADDR OF PRTMSG
.CALMSG  ANOP                                                    Y02006
         BALR  R14,R15             LINK TO IT                    Y02006
         MEND
