         MACRO
&NAME    CMWTO &MT=,&MSG=,&REG=,&WAIT=NO,&DISP=,&SIZE=
         LCLA  &D
         AIF   (T'&REG NE 'O').A1
         AIF   (T'&MT NE 'O' AND T'&MSG NE 'O').A4
         MNOTE 8,'MT AND/OR MSG OPERANDS MISSING'
         MEXIT
.A4      ANOP
&D       SETA  (&MSG-1)*4
&NAME    L     R1,&MT .                 MESSAGE MODULE ADDRESS
         L     R1,&D.(R1) .               MESSAGE ADDRESS
         AGO   .A5
.A1      ANOP
         AIF   ('&REG' EQ '(1)').A2
&NAME    LR    R1,&REG .                MESSAGE ADDRESS
         AGO   .A5
.A2      ANOP
&NAME    DS    0H .                     NAME FIELD OF ROUTINE
.A5      ANOP
         AIF   ('&DISP' EQ '6').A3
         AIF   ('&WAIT' EQ 'YES').A3
         OI    CESWT4,X'20' .           NO WAIT REQUESTED
.A3      ANOP
         AIF   (T'&SIZE EQ 'O').A6
         AIF   ('&SIZE'(1,1) EQ '(').A7
         MVI   0(R1),&SIZE .               SIZE OF REPLY
         AGO   .A6
.A7      ANOP
         STC   &SIZE,0(R1) .               SIZE OF REPLY
.A6      ANOP
         L     R15,PARPRADR .           ENTRY TO PARALLEL PRINT
         LA    R15,&DISP.(R15) .            ENTRY POINT IN DPRINT
         BALR  R14,R15 .                LINK TO MODULE
         MEND
