         MACRO
&NAME    COMCOM &RELEASE=MVM22                                   Y02008
         LCLC  &V,&X,&Z,&S                                      X01906
&S       SETC  '&RELEASE'                                       X01906
&V       SETC  'DC'
&X       SETC  'XL1'
&Z       SETC  '''00'''
         EJECT
         IFDPF1 &V,&X,&Z,&S                                     X01906
REPBUF   EQU   INBUFR
         ENTRY REPBUF
         EJECT
         MEND
