         MACRO
&NAME    DSW
         GBLA  &INDEX
         GBLC  &DEFNAME(255),&SWNAME(255)
         LCLA  &I,&J
         LCLC  &X,&Y
.*
.*             CHANGES TO RELEASE 3
.*             CHANGES TO RELEASE 2
.*             CHANGES TO RELEASE 1
.*
.* DEFINES SWITCH BYTE AND NAMES THE BITS IN THE BYTE
.*
         AIF   (N'&SYSLIST GT 8).ERR1
&X       SETC  'JSW&SYSNDX'
         AIF   (K'&NAME EQ 0).NEXT
&X       SETC  '&NAME'
.NEXT    ANOP
&X       DS    X
         AIF   (N'&SYSLIST EQ 0).EXIT
.LOOP    ANOP
&J       SETA  &I+1
         AIF   (K'&SYSLIST(&J) EQ 0).BYPASS
         AIF   (K'&SYSLIST(&J) GT 8).ERR1
&INDEX   SETA  &INDEX+1
         AIF   (&INDEX GT 255).ERR2
&Y       SETC  '&SYSLIST(&J)'
&DEFNAME(&INDEX) SETC '&X'
&SWNAME(&INDEX)  SETC '&Y'
&Y       EQU   BIT&I
.BYPASS  ANOP
&I       SETA  &I+1
         AIF   (N'&SYSLIST GT &I).LOOP
.EXIT    MEXIT
.ERR1    MNOTE 8,'PARAMETER ERROR.'
         MEXIT
.ERR2    MNOTE 8,'TOO MANY SWITCHES DEFINED FOR ASSEMBLY.'
         MEND
