* %/*
         MACRO
&NAME    ENFREQ &ACTION=,&CODE=,&TYPE=,&QUAL=,&QMASK=,                 *
               &EXIT=,&PARM=,&DTOKEN=,&STOKEN=,&FREEPRM=,&MF=,         *
               &RELATED=
.**********************************************************************
.*                                                                    *
.* MACRO  NAME - ENFREQ                                               *
.*                                                                    *
.* DESCRIPTION - MACRO FOR EVENT NOTIFICATION (ENF) REQUESTS          *
.*                                                                    *
.* COPYRIGHT -                                                        *
.*             5740-XYN COPYRIGHT IBM CORP 1981,                      *
.*             LICENSED MATERIAL - PROGRAM,                           *
.*             PROPERTY OF IBM,                                       *
.*             REFER TO COPYRIGHT INSTRUCTIONS FORM                   *
.*             NUMBER G120-2083                                       *
.*                                                                    *
.* STATUS - OS/VS2 JBB1326                                            *
.*                                                                    *
.* FUNCTION -                                                         *
.*      THE ENFREQ MACRO IS USED TO GENERATE THE EVENT                *
.*      PARAMETER LIST AND/OR INVOKE THE ENF SERVICE ROUTINE.         *
.*                                                                    *
.* OPERATION -                                                        *
.*      . VERIFY THE INPUT PARAMETERS SPECIFIED BY THE USER           *
.*                                                                    *
.*      . BUILD THE EVENT PARAMETER LIST (LIST AND NORMAL             *
.*        FORM)                                                       *
.*                                                                    *
.*      . GENERATE INSTRUCTIONS TO MODIFY THE EVENT PARAMETER         *
.*        LIST (NORMAL AND EXECUTE FORM)                              *
.*                                                                    *
.*      . GENERATE INSTRUCTION TO INVOKE THE ENF SERVICE              *
.*        ROUTINE (NORMAL AND EXECUTE FORM)                           *
.*                                                                    *
.* NOTES - N/A                                                        *
.*                                                                    *
.* DEPENDENCIES -                                                     *
.*       TO USE THE ENFREQ MACRO INSTRUCTION, THE CALLER MUST         *
.*            1. DECLARE STORAGE FOR A 4 BYTE POINTER ENFPTR          *
.*            2. DEFINE CVTPTR (EQUAL TO LOCATION 16)                 *
.*            3. INCLUDE THE CVT, IEFENFCT, AND IEFENFPM              *
.*               MAPPPING MACROS                                      *
.*                                                                    *
.* MODULE TYPE - MACRO                                                *
.*                                                                    *
.* ENTRY POINT - N/A                                                  *
.*                                                                    *
.* INPUT - THE FOLLOWING MAY BE SPECIFIED AS PARAMETERS TO ENFREQ     *
.*        . &ACTION - ACTION REQUESTED FOR ENF PROCESSING             *
.*                    (VALID TYPES : SIGNAL, LISTEN, AND DELETE)      *
.*        . &CODE - THE EVENT CODE                                    *
.*        . &DTOKEN - TOKEN FOR LISTEN AND DELETE REQUEST             *
.*        . &STOKEN - TOKEN FOR SIGNAL REQUEST                        *
.*        . &TYPE - REQUESTED ENF TO PROCESS THE REQUEST              *
.*                  SYNCHRONOUSLY(SYNC) OR ASYNCHRONOUSLY(ASYNC)      *
.*        . &QUAL - QUALIFIER (THE MEANING OF THE QUALIFIER IS        *
.*                  DETERMINED BY THE SIGNALLERS/LISTENERS OF         *
.*                  A GIVEN EVENT)                                    *
.*        . &QMASK - MASK TO DETERMINE WHICH BYTES IN THE             *
.*                   QUALIFIER ARE TO BE USED IN COMPARING            *
.*                   QUALIFIERS DURING SIGNAL PROCESSING.             *
.*        . &EXIT - ADDRESS OF SIGNALLER'S OR LISTENER'S              *
.*                  EXIT ROUTINE                                      *
.*        . &FREEPRM - FREEMAIN PARAMETERS USED TO FREE THE           *
.*                     SIGNALLER'S PARAMETER LIST                     *
.*        . &PARM -  ADDRESS OF SIGNALLER'S  PARAMETER LIST           *
.*        . &RELATED - USED BY THE CALLER TO SPECIFY                  *
.*                     INFORMATION USED TO SELF-DOCUMENT THE          *
.*                     VARIOUS ENFREQ REQUESTS                        *
.*                                                                    *
.* OUTPUT - THE OUTPUT FROM THE ENFREQ MACRO IS AN EVENT              *
.*          PARAMETER LIST (FOR LIST AND NORMAL FORM) AND/OR          *
.*          INSTRUCTIONS TO MODIFY THE EVENT PARAMETER LIST           *
.*          AND INVOKE THE ENF SERVICE ROUTINE (IEFENFFX).            *
.*                                                                    *
.* EXIT,NORMAL                                                        *
.*   CONDITION - NO ERRORS DETECTED                                   *
.*   OUTPUT    - NO MNOTE ISSUED. SEVERITY CODE = 0.                  *
.*                                                                    *
.* EXIT,NORMAL                                                        *
.*   CONDITION - ERROR CONDITION DETECTED BY THE ENFREQ MACRO         *
.*   OUTPUT    - INFORMATION MNOTES WITH SEVERITY CODE 4              *
.*               ISSUED WHEN PARAMETER SPECIFIED IS                   *
.*               INCORRECT. THE SPECIFIED PARAMETER IS IGNORED        *
.*               AND THE DEFAULT VALUE FOR THAT PARAMETER             *
.*               IS ASSUMED.                                          *
.*                                                                    *
.* EXIT, ERROR                                                        *
.*   CONDITION - ERROR CONDITION DETECTED BY THE ENFREQ MACRO         *
.*   OUTPUT    - ERROR MNOTES WITH SEVERITY CODE 8 (SEE               *
.*               MESSAGES) ISSUED WHEN CERTAIN REQUIRED               *
.*               PARAMETER IS MISSING OR INCORRECTLY SPECIFIED.       *
.*               THE MACRO WILL ATTEMPT TO SCAN FOR ADDITIONAL        *
.*               ERRORS.                                              *
.*                                                                    *
.* EXIT, ERROR                                                        *
.*   CONDITION - SEVERE ERROR DETECTED BY THE ENFREQ MACRO            *
.*   OUTPUT    - ERROR MNOTES WITH SEVERITY CODE 12 (SEE              *
.*               MESSAGES) ISSUED WHEN CERTAIN REQUIRED               *
.*               PARAMETER IS MISSING OR INCORRECTLY SPECIFIED.       *
.*               THE MACRO EXPANSION WILL BE TERMINATED AS            *
.*               A RESULT OF THE ERROR.                               *
.*                                                                    *
.*                                                                    *
.* EXTERNAL REFERENCES - N/A                                          *
.*                                                                    *
.* TABLES - N/A                                                       *
.*                                                                    *
.* MACROS - CVT                                                       *
.*          IEFENFCT                                                  *
.*          IEFENFPM                                                  *
.*                                                                    *
.* CHANGE ACTIVITY -                                                  *
.*   $D0= DCR#1   JBB1326  800604  PD42: IMPLICIT FLAG - NEW CODE     *
.*   $P1= PMM0114 JBB1326  800604  PD42: ADD KEYWORD RETCODE FOR      *
.*                                         ENFREQP                    *
.*   $P2= PMM0135 JBB1326  800604  PD42: CHECK FOR ACTION PARAMETER   *
.*                                         IF DTOKEN IS SPECIFIED IN  *
.*                                         EXECUTE FORM               *
.*   $P3= PMM0335 JBB1326  810420  PD42: CORRECT CHANGE ACTIVITY      *
.*                                         LINE FLAGS AND COPYRIGHT   *
.*                                                                    *
.* MESSAGES - (MNOTES)                                                *
.*   - INFORMATIONAL MNOTES :                                         *
.*       MNOTE   04,'QUAL NOT ALLOWED FOR DELETE REQUEST - IGNORED'   *
.*       MNOTE   04,'QMASK NOT ALLOWED FOR SIGNAL REQUEST - IGNORED'  *
.*       MNOTE   04,'QMASK NOT ALLOWED FOR DELETE REQUEST - IGNORED'  *
.*       MNOTE   04,'EXIT NOT ALLOWED FOR DELETE REQUEST - IGNORED'   *
.*       MNOTE   04,'PARM NOT ALLOWED FOR LISTEN REQUEST - IGNORED'   *
.*       MNOTE   04,'PARM NOT ALLOWED FOR DELETE REQUEST - IGNORED'   *
.*       MNOTE   04,'FREEPRM NOT ALLOWED FOR LISTEN REQUEST- IGNORED' *
.*       MNOTE   04,'FREEPRM NOT ALLOWED FOR DELETE REQUEST- IGNORED' *
.*       MNOTE   04,'STOKEN NOT ALLOWED FOR DELETE REQUEST - IGNORED' *
.*       MNOTE   04,'STOKEN NOT ALLOWED FOR LISTEN REQUEST - IGNORED' *
.*       MNOTE   04,'DTOKEN NOT ALLOWED IN LIST FORM - IGNORED'       *
.*       MNOTE   04,'DTOKEN NOT ALLOWED FOR SIGNAL REQUEST - IGNORED' *
.*                                                                    *
.*   - ERROR MNOTES :                                                 *
.*       MNOTE   08,'PARM REQUIRED WITH FREEPRM - FREEPRM IGNORED'    *
.*       MNOTE   08,'DTOKEN REQUIRED FOR DELETE REQUEST'              *
.*       MNOTE   08,'ACTION REQUIRED WITH DTOKEN - DTOKEN IGNORED'    *
.*                                                                @P2A*
.*       MNOTE   08,'INVALID TYPE : TYPE=&TYPE IGNORED'               *
.*       MNOTE   08,'INVALID QMASK VALUE : &QMASK(&I) IGNORED'        *
.*       MNOTE   08,'DUPLICATE QMASK VALUE : &QMASK(&I)'              *
.*       MNOTE   08,'MORE THAN &MAXQMSK QMASK VALUES - QMASK IGNORED' *
.*       MNOTE   08,'EXTRANEOUS QMASK INFO - QMASK=(ALL) ASSUMED'     *
.*       MNOTE   08,'EXTRANEOUS QMASK INFO - QMASK=(NONE) ASSUMED'    *
.*       MNOTE   08,'CODE PARAMETER REQUIRED'                         *
.*       MNOTE   08,'EXIT REQUIRED FOR LISTEN REQUEST'                *
.*       MNOTE   08,'LENGTH REQUIRED IN FREEPRM - FREEPRM IGNORED'    *
.*       MNOTE   08,'SUBPOOL REQUIRED IN FREEPRM - FREEPRM IGNORED'   *
.*       MNOTE   08,'SUBPOOL AND LENGTH REQUIRED - FREEPRM IGNORED'   *
.*       MNOTE   08,'MORE THAN &MAXF FREEPRM VALUES -FREEPRM IGNORED' *
.*       MNOTE   08,'INVALID FREEPRM KEY VALUE - FREEPRM IGNORED'     *
.*       MNOTE   08,'KEY IN REGISTER NOT ALLOWED FOR LIST FORM'       *
.*       MNOTE   08,'LENGTH IN REGISTER NOT ALLOWED FOR LIST FORM'    *
.*       MNOTE   08,'SUBPOOL IN REGISTER NOT ALLOWED FOR LIST FORM'   *
.*                                                                    *
.*       MNOTE   12,'INVALID ACTION : ACTION=&ACTION-MACRO TERMINATED'*
.*       MNOTE   12,'INVALID MF PARAMETER : MF=&MF - MACRO TERMINATED'*
.*       MNOTE   12,'ACTION REQUIRED - MACRO TERMINATED'              *
.*       MNOTE   12,'ERROR IN ENFREQ MACRO - MACRO TERMINATED'        *
.*                                                                    *
.*                                                                    *
.* A 000000-999999                                                @D0A*
.**********************************************************************
.*-------------------------------------------------------------------*
.*   DECLARATIONS FOR TEMPORARY VALUES FOR EVENT PARAMETER LIST      *
.*-------------------------------------------------------------------*
         LCLA    &LEN,&ACT             WORD 1 : LENGTH,ACTION
         LCLC    &CDE                  WORD 2 : CODE
         LCLC    &MSK                  WORD 3 : QMASK
         LCLA    &FLG                  WORD 3 : FLAGS
         LCLC    &FREEKEY              WORD 3 : KEY FOR FREEPRM
         LCLC    &FREESP               WORD 3 : SUBPOOL FOR FREEPRM
         LCLC    &QUALIF               WORD 4 : QUALIFIER
         LCLC    &EXTADR               WORD 5 : EXIT ADDRESS
         LCLC    &PARMS                WORD 6 : SIGNAL PARMS
         LCLC    &TOK                  WORD 7 : TOKEN
         LCLC    &FREELEN              WORD 8 : LENGTH FOR FREEPRM
.*-------------------------------------------------------------------*
.*   DECLARATIONS FOR LOCAL VARIABLES                                *
.*-------------------------------------------------------------------*
         LCLB    &NORMAL,&LIST,&EXECUTE FORM OF MACRO CALL
         LCLC    &GNAME                LABEL GENERATED
         LCLC    &REGC                 REGISTER IN CHARACTERS
         LCLA    &N,&I                 FOR PROCESSING QMASK
         LCLB    &QBYTE(4),&ERRMASK    FOR PROCESSING QMASK
         LCLC    &INX                  FOR PROCESSING QMASK
         LCLB    &DONECDE              CODE ALREADY BEEN PROCESSED
         LCLB    &DONEXIT              EXIT ALREADY BEEN PROCESSED
         LCLB    &DONEPRM              PARM ALREADY BEEN PROCESSED
         LCLB    &DONETYP              TYPE ALREADY BEEN PROCESSED
         LCLB    &DONEACT              ACTION ALREADY BEEN PROCESSED
         LCLB    &DONEMSK              QMASK ALREADY BEEN PROCESSED
         LCLB    &DONESP               FREEMAIN : SUBPOOL PROCESSED
         LCLB    &DONELEN              FREEMAIN : LENGTH PROCESSED
         LCLB    &DONEKEY              FREEMAIN : KEY PROCESSED
         LCLB    &DONEFFG              ENFPFREE FLAG HAS BEEN SET UP
         LCLB    &DONEFRP              FREEPRM PROCESSING COMPLETED
         LCLA    &MAXF                 MAXIMUM NUMBER OF FREEPRM ATTR
         LCLA    &MINF                 MINIMUM NUMBER OF FREEPRM ATTR
         LCLA    &MAXQMSK              MAXIMUM NUMBER OF QMASK VALUES
         LCLA    &NPARAMS,&MAXBR,&EXTRA FOR ACTR CALCULATION
.*-------------------------------------------------------------------*
.*   DECLARATIONS FOR DEBUGGING                                      *
.*-------------------------------------------------------------------*
         LCLB    &STOPLOP              DEBUG : PREVENT LOOPING
.*-------------------------------------------------------------------*
.*   INITIALIZE LOCAL VARIABLES                                      *
.*-------------------------------------------------------------------*
&LEN     SETA    32                    LENGTH OF PARAMETER LIST
&ACT     SETA    0                     INVALID ACTION
&CDE     SETC    '0'                   INVALID CODE
&FLG     SETA    X'00'                 DEFAULT VALUES FOR FLAGS
&MSK     SETC    '00000000'            NOT SPECIFIED BY CALLER
&FREEKEY SETC    '0'                   NOT SPECIFIED BY CALLER
&FREESP  SETC    '0'                   NOT SPECIFIED BY CALLER
&QUALIF  SETC    '0'                   NOT SPECIFIED BY CALLER
&EXTADR  SETC    '0'                   NOT SPECIFIED BY CALLER
&PARMS   SETC    '0'                   NOT SPECIFIED BY CALLER
&TOK     SETC    '0'                   NOT SPECIFIED BY CALLER
&FREELEN SETC    '0'                   NOT SPECIFIED BY CALLER
.*-------------------------------------------------------------------*
.*                                                                   *
.*       MINIMUM/MAXIMUM NUMBER OF VALUES ALLOWED IN FREEPRM AND     *
.*       QMASK                                                       *
.*-------------------------------------------------------------------*
&MAXF    SETA    3                     (SUBPOOL,LENGTH,KEY)
&MINF    SETA    2                     (SUBPOOL,LENGTH)
&MAXQMSK SETA    4                     UP TO 4 QMASK VALUES ALLOWED
.*-------------------------------------------------------------------*
.*                                                                   *
.*       SET UP ACTR VALUE                                           *
.*                                                                   *
.*-------------------------------------------------------------------*
&NPARAMS SETA    12                    NUMBER OF MACRO PARAMETERS
&MAXBR   SETA    20                    MAX BRANCHES/PARAM (QMASK USED)
&EXTRA   SETA    100                   EXTRA BRANCHES
         ACTR    &NPARAMS*&MAXBR+&EXTRA
.*-------------------------------------------------------------------*
.*       DETERMINE WHICH FORM OF THE MACRO IS REQUESTED              *
.*-------------------------------------------------------------------*
         AIF     ('&MF' EQ 'L').LISTFM MF=L SPECIFIED
&GNAME   SETC    'IHB'.'&SYSNDX'       INITIALIZE LABEL
         USING   ENFPM,1               MAP ENFPM OVER AREA
         AIF     ('&MF' EQ '').NORMFM  MF NOT SPECIFIED
         AIF     (N'&MF NE 2).BADMF1   EXECUTE FORM HAS 2 PARMS
         AIF     ('&MF(1)' EQ 'E').EXECFM  MF=(E,LIST)
.BADMF1  MNOTE   12,'INVALID MF PARAMETER : MF=&MF - MACRO TERMINATED'
         AGO     .ERREXIT
.*********************************************************************
.*                                                                   *
.*       BEGIN PROCESSING PARAMETERS FOR NORMAL FORM                 *
.*                                                                   *
.*********************************************************************
.NORMFM  ANOP                          BEGIN NORMAL FORM
&NORMAL  SETB    1                     NORMAL FORM REQUESTED
.*-------------------------------------------------------------------*
.*       THE FOLLOWING PARAMETERS WILL BE PUT INTO THE EVENT         *
.*       PARAMETER LIST IF SPECIFIED  (EXCEPT WHEN SPECIFIED         *
.*       IN REGISTER) :                                              *
.*          1. ACTION                                                *
.*          2. CODE                                                  *
.*          3. TYPE                                                  *
.*          4. EXIT                                                  *
.*          5. PARM                                                  *
.*          6. QMASK                                                 *
.*          7. ENFPFREE FOR FREEPRM                                  *
.*-------------------------------------------------------------------*
.*-------------------------------------------------------------------*
.*       PROCESS THE ACTION PARAMETER - NORMAL FORM                  *
.*-------------------------------------------------------------------*
         AIF     ('&ACTION' EQ 'SIGNAL').SIGACT0 ACTION=SIGNAL
         AIF     ('&ACTION' EQ 'DELETE').DELACT0 ACTION=DELETE
         AIF     ('&ACTION' EQ 'LISTEN').LISACT0 ACTION=LISTEN
         AIF     ('&ACTION' EQ '').NOACT0        ACTION NOT SPECIFIED
         MNOTE   12,'INVALID ACTION : ACTION=&ACTION-MACRO TERMINATED'
         AGO     .ERREXIT
.NOACT0  ANOP
         MNOTE   12,'ACTION REQUIRED - MACRO TERMINATED'
         AGO     .ERREXIT
.LISACT0 ANOP
&ACT     SETA    X'02'                 SET ACTION CODE TO LISTEN
         AGO     .ENDACT0
.SIGACT0 ANOP
&ACT     SETA    X'01'                 SET ACTION CODE TO SIGNAL
         AGO     .ENDACT0
.DELACT0 ANOP
&ACT     SETA    X'03'                 SET ACTION CODE TO DELETE
.ENDACT0 ANOP
&DONEACT SETB    1                     ACTION PROCESSING COMPLETED
.*-------------------------------------------------------------------*
.*       PROCESS THE CODE PARAMETER - NORMAL FORM (NOT REGISTER)     *
.*-------------------------------------------------------------------*
         AIF     ('&CODE' NE '').CHCODE MUST SPECIFY EVENT CODE
         MNOTE   08,'CODE PARAMETER REQUIRED'
         AGO     .DONECDE
.CHCODE  ANOP
         AIF     ('&CODE'(1,1) EQ '(').ENDCDE0  SKIP : CODE IN REG
&CDE     SETC    '&CODE'               SAVE FOR EVENT PARM LIST
.DONECDE ANOP
&DONECDE SETB    1                     NO NEED TO GENERATE CODE
.ENDCDE0 ANOP
.*-------------------------------------------------------------------*
.*       PROCESS THE TYPE PARAMETER - NORMAL FORM                    *
.*-------------------------------------------------------------------*
         AIF     ('&TYPE' EQ '').SYNC0        USE DEFAULT = SYNC
         AIF     ('&TYPE' EQ 'ASYNC').ASYNC0  TYPE=ASYNC
         AIF     ('&TYPE' NE 'SYNC').BADSYN0  EXPECT TYPE=SYNC
.SYNC0   ANOP
&FLG     SETA    X'00'+&FLG            SYNCHRONOUS CALLER
         AGO     .ENDTYPE
.ASYNC0  ANOP
&FLG     SETA    X'80'+&FLG            ASYNCHRONOUS CALLER
         AGO     .ENDTYPE
.BADSYN0 MNOTE   08,'INVALID TYPE : TYPE=&TYPE IGNORED'
         AGO     .SYNC0                USE DEFAULT : TYPE=SYNC
.ENDTYPE ANOP
&DONETYP SETB    1                     TYPE PROCESSING COMPLETED
.*-------------------------------------------------------------------*
.*       PROCESS THE EXIT PARAMETER - NORMAL FORM (NOT REGISTER)     *
.*-------------------------------------------------------------------*
         AIF     ('&EXIT' EQ '').NULXIT0
         AIF     ('&ACTION' EQ 'DELETE').BADXIT0
         AIF     ('&EXIT'(1,1) EQ '(').ENDXIT0 EXIT ADDR IN REG
&EXTADR  SETC    '&EXIT'               SAVE EXIT ROUTINE ADDR
         AGO     .DONEXIT
.NULXIT0 AIF     ('&ACTION' NE 'LISTEN').DONEXIT
         MNOTE   08,'EXIT REQUIRED FOR LISTEN REQUEST'
         AGO     .DONEXIT
.BADXIT0 MNOTE   04,'EXIT NOT ALLOWED FOR DELETE REQUEST - IGNORED'
.DONEXIT ANOP
&DONEXIT SETB    1                     NO NEED TO GENERATE CODE
.ENDXIT0 ANOP
.*-------------------------------------------------------------------*
.*       PROCESS THE PARM PARAMETER - NORMAL FORM (NOT REGISTER)     *
.*-------------------------------------------------------------------*
         AIF     ('&PARM' EQ '').DONEPRM
         AIF     ('&ACTION' EQ '' OR '&ACTION' EQ 'SIGNAL').SETPRM0
         MNOTE   04,'PARM NOT ALLOWED FOR &ACTION REQUEST - IGNORED'
         AGO     .DONEPRM
.SETPRM0 ANOP
         AIF     ('&PARM'(1,1) EQ '(').ENDPRM0
&PARMS   SETC    '&PARM'               SAVE USER PARM LIST
.DONEPRM ANOP
&DONEPRM SETB    1                     NO NEED TO GENERATE CODE
.ENDPRM0 ANOP
.*-------------------------------------------------------------------*
.*       PROCESS THE QMASK PARAMETER - NORMAL FORM                   *
.*-------------------------------------------------------------------*
         AIF     ('&QMASK' EQ '').ENDQMK0 QMASK NOT SPECIFIED
         AGO     .GETMASK              GET QMASK
.INITMSK ANOP                          QMASK SHOULD BE INITIALIZED
.ENDQMK0 ANOP
&DONEMSK SETB    1                     QMASK PROCESSING COMPLETED
.*-------------------------------------------------------------------*
.*       PROCESS THE FREEPRM PARAMETER - NORMAL FORM (SET ENFPFREE)  *
.*-------------------------------------------------------------------*
         AIF     ('&FREEPRM' EQ '').ENDFPN
         AIF     ('&ACTION' NE 'SIGNAL').BADFPM0
         AIF     ('&PARM' NE '').FREEPRO PROCESS FREEPRM AS IN LIST
.*                                     FORM. RETURN POINT = ENDFRPN
         MNOTE   08,'PARM REQUIRED WITH FREEPRM - FREEPRM IGNORED'
         AGO     .ENDFPN
.BADFPM0 MNOTE   04,'FREEPRM NOT ALLOWED FOR &ACTION REQUEST- IGNORED'
.ENDFPN  ANOP
&DONEFRP SETB    1                     ENFPFREE PROCESSING COMPLETED
.ENDFRPN ANOP                          END OF FREEPRM PROCESSING
.*-------------------------------------------------------------------*
.*    END PARAMETER LIST PROCESSING (NOT REGISTER) FOR NORMAL FORM   *
.*                                                                   *
.*-------------------------------------------------------------------*
         CNOP    0,4                   ALIGN ON HALFWORD BOUNDARY
&NAME    BAL     1,&GNAME.A            BRANCH AROUND PARM LIST
         AGO     .GENLIST              GO GENERATE PARM LIST
.*********************************************************************
.*                                                                   *
.*       MF=L SPECIFIED : BEGIN PARAMETER PROCESSING FOR LIST FORM   *
.*                                                                   *
.*********************************************************************
.LISTFM  ANOP                          BEGIN LIST FORM
&LIST    SETB    1                     LIST FORM REQUESTED
.*-------------------------------------------------------------------*
.*       PROCESS THE ACTION  PARAMETER - LIST FORM                   *
.*-------------------------------------------------------------------*
         AIF     ('&ACTION' EQ '').ENDACTN   ACTION NOT SPECIFIED
         AIF     ('&ACTION' EQ 'SIGNAL').SIGNAL
         AIF     ('&ACTION' EQ 'DELETE').DELETE
         AIF     ('&ACTION' EQ 'LISTEN').LISTEN
         MNOTE   12,'INVALID ACTION : ACTION=&ACTION-MACRO TERMINATED'
         AGO     .ERREXIT
.SIGNAL  ANOP
&ACT     SETA    X'01'                 ACTION=SIGNAL (ENFPSIG)
         AGO     .ENDACTN
.LISTEN  ANOP
&ACT     SETA    X'02'                 ACTION=LISTEN (ENFPLIS)
         AGO     .ENDACTN
.DELETE  ANOP
&ACT     SETA    X'03'                 ACTION=DELETE (ENFPDEL)
.ENDACTN ANOP
.*-------------------------------------------------------------------*
.*       PROCESS THE CODE PARAMETER - LIST FORM                      *
.*-------------------------------------------------------------------*
         AIF     ('&CODE' EQ '').CDEEND CODE NOT SPECIFIED
&CDE     SETC    '&CODE'               SAVE EVENT CODE
.CDEEND  ANOP
.*-------------------------------------------------------------------*
.*       PROCESS THE DTOKEN PARAMETER - LIST FORM                    *
.*-------------------------------------------------------------------*
         AIF     ('&DTOKEN' EQ '').ENDDTOK  DTOKEN NOT SPECIFIED
         MNOTE   04,'DTOKEN NOT ALLOWED IN LIST FORM - IGNORED'
.ENDDTOK ANOP
.*-------------------------------------------------------------------*
.*       PROCESS THE STOKEN PARAMETER - LIST FORM                    *
.*-------------------------------------------------------------------*
         AIF     ('&STOKEN' EQ '').ENDSTOK  STOKEN NOT SPECIFIED
         AIF     ('&ACTION' NE '' AND '&ACTION' NE 'SIGNAL').BADSTK1
&TOK     SETC    '&STOKEN'              SAVE STOKEN FOR LATER
         AGO     .ENDSTOK
.BADSTK1 MNOTE   04,'STOKEN NOT ALLOWED FOR &ACTION REQUEST - IGNORED'
.ENDSTOK ANOP
.*-------------------------------------------------------------------*
.*       PROCESS THE TYPE PARAMETER - LIST FORM                      *
.*-------------------------------------------------------------------*
         AIF     ('&TYPE' EQ '').ENDSYN TYPE NOT SPECIFIED
         AIF     ('&TYPE' EQ 'ASYNC').ASYN   TYPE=ASYNC SPECIFIED
         AIF     ('&TYPE' NE 'SYNC').BADSYN1 TYPE=SYNC  SPECIFIED
&FLG     SETA    X'00'+&FLG            SYNCHRONOUS CALLER
         AGO     .ENDSYN
.ASYN    ANOP
&FLG     SETA    X'80'+&FLG            ASYNCHRONOUS CALLER(ENFPASN)
         AGO     .ENDSYN
.BADSYN1 MNOTE   08,'INVALID TYPE : TYPE=&TYPE IGNORED'
.ENDSYN  ANOP
.*-------------------------------------------------------------------*
.*       PROCESS THE QUAL   PARAMETER  - LIST FORM                   *
.*-------------------------------------------------------------------*
         AIF     ('&QUAL' EQ '').ENDQUL  QUALIFIER NOT SPECIFIED
         AIF     ('&ACTION' EQ 'DELETE').BADQUL1
&QUALIF  SETC    '&QUAL'               SAVE QUALIFER FOR LATER
         AGO     .ENDQUL
.BADQUL1 MNOTE   04,'QUAL NOT ALLOWED FOR DELETE REQUEST - IGNORED'
.ENDQUL  ANOP
.*-------------------------------------------------------------------*
.*       PROCESS THE QMASK PARAMETER - (ALL FORMS)                   *
.*-------------------------------------------------------------------*
.GETMASK ANOP                          GENERATE QMASK
&ERRMASK SETB    1                     INITIALIZE ERRMASK
         AIF     ('&QMASK' EQ '').ENDQMSK QMASK NOT SPECIFIED
         AIF     ('&ACTION' NE 'LISTEN').BADMASK
.BEGINSL ANOP                          BEGIN PROCESS SUBLIST
&N       SETA    N'&QMASK              NUMBER OF ENTRIES
         AIF     (&N GT &MAXQMSK).BADMSK2 ALLOW UP TO &MAXQMSK VALUES
&I       SETA    1
.LOOP    AIF     (&I GT &N).ENDLOOP    ALL ENTRIES PROCESSED
         AIF     ('&QMASK(&I)' EQ 'ALL').ALL  QMASK=(ALL)
         AIF     ('&QMASK(&I)' EQ 'NONE').NOQMASK QMASK=(NONE)
         AIF     (K'&QMASK(&I) NE 5).BADMSK BYTEX EXPECTED
         AIF     ('&QMASK(&I)'(1,4) NE 'BYTE').BADMSK
&INX     SETC    '&QMASK(&I)'(5,1)     EXTRACT LAST DIGIT
         AIF     (('&INX' LT '1') OR ('&INX' GT '4')).BADMSK
         AIF     (&QBYTE(&INX) NE 0).DUPMSK
&QBYTE(&INX) SETB 1                    SET CORRESPONDING QBYTE
.NEXT    ANOP
&I       SETA    &I+1                  INCREMENT COUNTER
         AGO     .LOOP                 PROCESS ANOTHER ENTRY
.BADMSK  ANOP
         MNOTE   08,'INVALID QMASK VALUE : &QMASK(&I) IGNORED'
         AGO     .NEXT                 SKIP THIS BYTE
.DUPMSK  ANOP
         MNOTE   08,'DUPLICATE QMASK VALUE : &QMASK(&I)'
         AGO     .NEXT
.BADMASK ANOP
         AIF     ('&ACTION' EQ '' AND (NOT &NORMAL)).BEGINSL
.*                                     MAY SPECIFY IN LIST OR
.*                                     EXECUTE FORM
         MNOTE   04,'QMASK NOT ALLOWED FOR &ACTION REQUEST - IGNORED'
         AGO     .ENDQMSK              IGNORE THE QMASK
.BADMSK2 ANOP
         MNOTE   08,'MORE THAN &MAXQMSK QMASK VALUES - QMASK IGNORED'
         AGO     .ENDQMSK
.NOQMASK ANOP
         AIF     (&N EQ 1).SETNOQM
         MNOTE   08,'EXTRANEOUS QMASK INFO - QMASK=(NONE) ASSUMED'