         MACRO
&NAME    IEBMCA
*A 976365                                                      @YM06438
*C 976364                                                      @YM06438
*A 976364                                                      @YM06433
*C 976200-976480,976899                                        @YM06433
*D 976484-976799,976999-977360                                 @YM06433
*A976420-977360                                                @YM04848
*D655200,A654900-655500                                         OY01182
*A966100-976400                                                 YL026VD
*A664200,928800                                                  A36049
*A711900-712100                                                  A44345
* 155700,179100,229500,236700,324900,839700,859500               X010XX
*C229500-230900,236700-238500                                    A45170
* 472500,475200,481500                                           X010XX
*A756500-756840                                                  A48742
*A236700                                                        YA01689
*
**********       C O M M U N I C A T I O N    A R E A        **********
**********                  I E B D S C P Y                  **********
*
         SPACE 2
* ABBREVIATIONS USED FREQUENTLY -
*        ODE = OUTPUT DIRECTORY ENTRY
*        IDE = INPUT DIRECTORY ENTRY
         SPACE 2
*
* SETAB = SELECT/EXCLUDE TABLE
*        THE SETAB CONSISTS OF 10-BYTE ENTRIES.  ENTRIES ARE MADE TO
*        THIS TABLE WHEN -
*              1) A SELECTIVE COPY HAS BEEN SPECIFIED.  EACH ENTRY IS
*              FOR THE NAME OF A MEMBER TO BE SELECTED.  IF A MEMBER IS
*              TO BE RENAMED, TWO 10-BYTE ENTRIES ARE MADE IN THE SETAB
*              2) AN EXCLUSIVE COPY HAS BEEN SPECIFIED.  EACH ENTRY IS
*              FOR THE NAME OF A MEMBER TO BE EXCLUDED.
*        NOTE- IN THE CASE OF A SELECTIVE COPY (AND ONLY IN THIS CASE),
*              THE SETAB WILL ALSO BE USED AS THE CTLTAB.  IN ALL OTHER
*              CASES, A SEPARATE CTLTAB WILL BE CONSTRUCTED.
*        BYTE 0 OF AN ENTRY IS DESIGNATED AS SEFLAG1.  WITHIN THIS BYTE
*        THE FOLLOWING BITS HAVE MEANING -
SEBIT1   EQU   X'80' ON=THIS IS A NEWNAME ENTRY
SEBIT2   EQU   X'40' ON=THIS IS A RENAMED ENTRY
SEBIT3   EQU   X'20' ON=REPLACE OPTION WAS SPECIFIED FOR THIS MEMBER
SEBIT4   EQU   X'10' ON=DONTCOPY FLAG...DO NOT PROCESS THIS ENTRY
SEBIT5   EQU   X'08' ON= THIS MEMBER HAS BEEN ''FOUND'' ON INPUT D.S.
SEBIT6   EQU   X'04' ON= THIS IS LAST ENTRY IN SETAB/CTLTAB
*        LO ORDER 2 BITS NOT USED
*        NOTE THE DEFINITION OF SEBIT3.  IF, IN THE INDD TABLE, BYTE 0
*              BIT 2 IS ON, THIS MEANS THAT THE REPLACE OPTION WAS SPE-
*              CIFIED FOR ALL MEMBERS COPIED FROM THIS INDD.  IT IS
*              VALID FOR BOTH OF THESE BITS TO BE ON AT THE SAME TIME,
*              ALTHOUGH IF THE BIT IS ON IN THE INDD TABLE, IT IS UN-
*              NECESSARY FOR SEBIT3 TO ALSO BE ON IN THE SETAB.
         EJECT
* FOLLOWING IS A DESCRIPTION OF THE CONTROL TABLE -CTLTAB-
* (REMEMBER THAT THIS TABLE IS PHYSICALLY THE SAME TABLE AS SETAB WHEN
* A SELECTIVE COPY OPERATION IS SPECIFIED, BUT IS PHYSICALLY INDEPEN-
* DENT AND DISTINCT FROM THE SETAB FOR AN EXCLUSIVE COPY OPERATION.
* THERE IS NO SETAB FOR A FULL COPY OPERATION, AND THE CTLTAB IN THIS
* CASE IS CONSTRUCTED SIMILARLY TO WHEN AN EXCLUSIVE COPY IS SPECIFIED.
* SINCE THE SETAB AND CTLTAB ARE ONE AND THE SAME FOR A SEL. COPY, THIS
*  DESCRIPTION WILL ASSUME THAT A SELECTIVE COPY IS BEING DONE, FOR THE
*  PURPOSE OF SETTING UP THE TABLE INITIALLY.)....
         SPACE 2
*        INITIAL TABLE, FOLLOWING CCSCAN PROCESSING OF ''SELECT'' -
***********************************************************************
*SEFLAG1 *SEFLAG2 * NAME OF MEMBER TO BE SELECTED, OR, IF SPECIFIED,  *
*(DESCR. *(UNUSED)* NEWNAME.  IF NEWNAME WAS SPECIFIED, THE TABLE WILL*
* ABOVE) *        * CONTAIN 1 ENTRY FOR OLDNAME AND ANOTHER FOR NEW.  *
***********************************************************************
* 1 BYTE * 1 BYTE *----------------------8 BYTES----------------------*
         SPACE 2
* OLDNAME/NEWNAME PAIRS ARE NOW EXTRACTED FROM THE SETAB.  THEN THE
* CTLTAB IS SORTED ALPH. BY MBRNAME, AND A NEWNAME PTRTABLE SET UP.
* WHEN THIS HAS BEEN DONE, THE INPUT DATA SET'S DIRECTORY IS SEARCHED
* FOR MATCHING NAMES (THE NEWNAME ENTRIES IN THE TABLE ARE NOT USED FOR
* THIS COMPARISON).  WHEN A MATCHING MEMBERNAME IS FOUND, THE DIRECTORY
* ENTRY IS RETAINED IN CORE (IF SPACE PERMITS), OR IT IS SPILLED ONTO
* SYSUT3.  IN EITHER CASE, THE CORE ADDRESS OR THE TTR+INDICATOR ARE
* PUT INTO THE CTLTAB, OVERLAYING THE HIGH-ORDER 4 BYTES OF 'OLDNAME'.
* THE MEMBER-TTR IS EXTRACTED FROM THE DIRECTORY ENTRY, AND OVERLAYS
* THE LOW-ORDER 4 BYTES OF 'OLDNAME' IN THE CTLTAB.  SEBIT5 IS TURNED
* ON.  IF THIS IS AN ALIAS ENTRY, SEFLAG2 IS SET AS FOLLOWS -
ALIAS    EQU   X'80'         TO TEST FOR AND SET ALIAS DIRECTORY ENTRY
         SPACE 2
*        CTLTAB ENTRY FOR A ''FOUND'' MEMBER -
         SPACE 2
***********************************************************************
*SEFLAG1 *SEFLAG2 * INDIC. * ADDR OF THE IN-* ZEROES *   MEMBER TTR   *
*        *        *  BYTE  * PUT DIR. ENTRY *        *                *
***********************************************************************
*-1 BYTE-*-1 BYTE-*-1 BYTE-*-----3 BYTES----*-1 BYTE-*-----3 BYTES----*
         SPACE 2
* THE INDICATOR BYTE IS ZEROES IF THE DIRECTORY ENTRY IS IN CORE, OR IT
* IS HEX '01' IF THE DIRECTORY ENTRY WAS SPILLED TO SYSUT3.
* NOTE THAT CTLTAB ENTRIES FOR A ''NEWNAME'' ARE NOT OVERLAYED OR AL-
* TERED AT ANY TIME.  ONCE THE ENTIRE INPUT DIRECTORY HAS BEEN SCANNED,
* (OR AT LEAST ALL ENTRIES FOR MEMBERS TO BE COPIED FROM THIS INPUT
* DATA SET HAVE BEEN BUILT), THE OUTPUT DATA SET DIRECTORY IS READ.
* MEMBERNAMES OF MEMBERS CURRENTLY IN THE OUTPUT DATA SET ARE COMPARED
* AGAINST MEMBERNAMES OF MEMBERS REFERENCED IN THE CTLTAB FOR THE CUR-
* RENT INPUT DATA SET, UNLESS THE LATTER WERE RENAMED.  IF THE INPUT
* MEMBER IS RENAMED, THEN THE NEWNAME IS COMPARED AGAINST THE OUTPUT.
* IF DUPLICATE NAMES ARE ENCOUNTERED, AND IF THE REPLACE OPTION WAS NOT
* SPECIFIED ON EITHER THE INDD LEVEL OR THE MEMBERNAME LEVEL, THEN THE
* DONT-COPY BIT (SEBIT4) IS SET IN THE FLAG BYTE OF THE APPROPRIATE
* CTLTAB ENTRY, AND THE INDIC. BYTE (BYTE 3) OF THIS ENTRY IS SET TO
* HEX 'FF'.
* THINK OF THE LOW-ORDER 8-BYTES OF EACH ''FOUND'' CTLTAB ENTRY AS BE-
* ING DIVIDED INTO A LEFT HALF (INDIC. + DIR. ENTRY ADDR.) AND A RIGHT
* HALF (ZEROES + MBR. TTR).  THE LEFT HALF NOW REPRESENTS DIRECTORY
* ENTRIES FOUND IN THE CURRENT INPUT DATA SET, AND IS IN ALPHAMERIC
* SEQUENCE.
         EJECT
* THE NEXT STEP IN CTLTAB PROCESSING CAUSES THE ''FOUND'' ENTRIES TO BE
* MANIPULATED, WITH THE RESULT BEING THAT THE LEFT HALF CONTAINS (IN-
* DIC + ADDR OF DIR. ENTRY) IN SEQUENCE BY MEMBER TTR, AND THE RIGHT
* HALF CONTAINS THIS SAME INFORMATION (INDIC. + ADDR OF DIR. ENTRY) IN
* ALPHAMERIC SEQUENCE, OVERLAYING THE ACTUAL MEMBER TTR.  ANOTHER RE-
* SULT OF THIS MANIPULATION OF THE CTLTAB IS THAT MAIN-MEMBER ENTRIES
* PRECEDE THE CORRESPONDING ALIAS ENTRIES.  NOTE THAT THE BITS SET IN
* SEFLAG1 ARE NOW ONLY USEFUL FOR THE ''RIGHT HALF'' OF THE CTLTAB,
* SINCE THEY ARE NOT MANIPULATED AND THUS REMAIN IN THE ORIGINAL (AL-
* PHABETIC) SEQUENCE.
         SPACE 2
*        CTLTAB ENTRY FOR A FOUND MEMBER FOLLOWING TTR SORT -
         SPACE 2
***********************************************************************
*SEFLAG1 *SEFLAG2 * INDIC. * ADDR OF IN. DE * INDIC. * ADDR OF IN. DE *
*        *        *  BYTE  *                *  BYTE  *                *
*        *        *IN SEQ BY MEMBER TTR     *IN SEQ ALPHAMERICALLY    *
***********************************************************************
* 1 BYTE-*-1 BYTE-*-1 BYTE-*-----3 BYTES----*-1 BYTE-*-----3 BYTES----*
         SPACE 2
* AT THIS POINT, THERE IS NO LOGICAL RELATIONSHIP BETWEEN THE LEFT AND
* RIGHT HALVES OF THE RELEVANT CTLTAB ENTRIES.  BOTH HALVES CONTAIN THE
* SAME INFORMATION, BUT IT IS IN TWO DIFFERENT SEQUENCES.  NOTE THAT,
* IF A MEMBER BEING LOOKED FOR IS NOT ''FOUND'', ITS CTLTAB ENTRY RE-
* MAINS UNALTERED - THE NAME IS STILL UN-OVERLAYED.
* FROM THIS POINT ON, THOSE MEMBERS OF THE INPUT DATA SET WHOSE DIREC-
* TORY ENTRIES ARE REFERENCED IN THE CTLTAB WILL BE COPIED, PROVIDED
* THAT THEY ARE ''FOUND'' AND NOT FLAGGED AS ''DONT-COPY''.  THEN THE
* DIRECTORY ENTRIES WILL BE MERGED.  AS THE MERGE IS PERFORMED, WHEN AN
* INPUT DE IS MERGED, IF THIS IS A SELECTIVE COPY, THE DONT-COPY BIT
* (SEBIT4) IS TURNED ON, THUS ALLOWING FOR THESE ENTRIES IN THE CTLTAB
* TO BE IGNORED IN SUBSEQUENT PASSES THROUGH THE SAME TABLE FOR THE EN-
* SUING INPUT DATA SETS.
JSTCPD   EQU   X'10'              IF ON IN THE 2ND BYTE OF A CTLTAB EN-
*                                 TRY (SEFLAG2), THERE IS A NAME (CON-
*                                 TAINED IN THE 3RD THROUGH 10TH BYTES
*                                 OF THIS ENTRY) OF AN INPUT MEMBER
*                                 WHICH HAS BEEN SUCCESSFULLY COPIED.
*                                 THIS MEMBERNAME WILL BE PRINTED BY
*                                 THE TERMINATION MODULE (IEBVTM) UNDER
*                                 APPROPRIATE CONDITIONS, AT WHICH TIME
*                                 THIS BIT WILL BE TURNED OFF.
***********************************************************************
         EJECT
*XXXXXXXXXX    EVERY CONSTANT BETW. HERE AND NXT X'S MUST BE CONTIGUOUS
* ALL CONSTANTS BETWEEN X'S ARE SET TO ZERO FOR EVERY INPUT DATA SET.
* THE NAMES OF THE CONSTANTS WHICH ARE INCLUDED IN THIS CONTIG. AREA -
* CDCT, FCT, NNTCT, OLDTTR, FLG5
* ICPT,SVLSTO,SVFSTO,FLG2,FLG6,SWITCH1,UTTRFLAG,OBCT
         SPACE 2
         DS    0F                 ALIGNMENT
ICPT     DC    F'0'          ADDR OF LAST CTLTAB ENTRY WHICH REFERENCED
*                            AN IN-CORE INPUT D.E.
SVFSTO   DC    AL4(0)        ADDR OF 1ST OUT DIR BLOCK SAVED IN CORE
SVLSTO   DC    AL4(0)        ADDR OF LAST OUT DIR BLOCK SAVED IN CORE
*
CDCT     DC    HL2'0'        COUNT OF NBR OF ENTRIES IN CTLTAB WHICH
*                            REFERENCE INPUT D-E'S WHICH WERE RETAINED
*                            IN CORE (IE, NOT ''SPILLED'')
FCT      DC    HL2'0'        COUNT OF THE NUMBER OF 'FOUND' MEMBERS
*                            WHICH ARE TO BE COPIED FROM THE CURRENT
*                            INPUT DATA SET
NNTCT    DC    HL2'0'        COUNTER USED FOR INDEXING THROUGH NEWNAME
*                            POINTER TABLE (NNPTRTAB)
OLDTTR   DS    XL3           IN TTR OF MOST RECENT MBR ACTUALLY COPIED
*
FLG2     DC    X'00'              FLAGS/SWITCHES
TRKS2    EQU   X'80'              ON = 2 TRACK-LENGTH BFRS ALLOCATED
MBUSED   EQU   X'40'              ON = MINIMUM I/O BFR-SIZE NOW ALLOC
RDEOF    EQU   X'20'              ON = EOF OCCURRED ON DS BEING READ
FSTWRT   EQU   X'10'              ON = 1ST BFR-FULL OF DATA FOR CURRENT
*                                 MEMBER HAS BEEN COPIED BY IEBMNM RTNE
FMTSPL   EQU   X'08'         ON = NEED TO WRT CT-KEY-DATA IF TO UT3
NBRK     EQU   X'04'              ON=SIZE PARM GIVEN IN K        X010XX
*              LOW ORDER 2 BITS NOT USED - RESERVED              X010XX
         SPACE 1
FLG5     DC    XL1'0'        SWITCHES / FLAGS
DEFSW    EQU   X'80'         ON = IEBMGD SUBRTNE INITIALIZATION SWITCH
OSCAN    EQU   X'40'         ON = SCAN OF OUT. D.E'S HAS BEEN INITIAL-
*                                 IZED FOR CURRENT INPUT D.S.
NSP      EQU   X'20'         ON = NO (MORE) SPACE TO KEEP ANY OUT. D.E.
OSW1     EQU   X'10'         ON = PRE-SCAN OF OUT. DIR. IS BEING DONE
*              LO ORDER 4 BITS NOT USED - RESERVED
*
         SPACE 1
FLG6     DC    X'0'          SWITCH
OIC      EQU   X'80'         ON = ALL ODE BLOCKS ARE RETAINED IN CORE
ODIC     EQU   X'40'         ON = SOME, BUT NOT ALL, ODE'S RETAINED
CPYSW    EQU   X'20'         ON = IEBMGI CALLED DURING CTLTAB TTR PROC.
SPL      EQU   X'10'         ON = SPILL OF INPUT D.E'S TO UT3 OCCURRED
*              LO ORDER 4 BITS NOT USED - RESERVED
*
SWITCH1  DC    X'00'         SWITCHES
TIME1    EQU   X'80'         ON = IEBMGI HAS INITIALIZED ITSELF FOR THE
*                                 CURRENT PHASE OF PROCESSING
ENTERNN  EQU   X'40'         ON = NEED TO PUT NEWNAME INTO DIR ENTRY
MGINODE  EQU   X'20'         ON = AN I/O ERROR READING FROM SYSUT3 HAS
*                                 CAUSED THE REQUESTED IDE NOT TO BE
*                                 READ INTO CORE CORRECTLY - IEBMGI HAS
*                                 NO IDE TO PASS BACK TO THE CALLER
UNLDTM   EQU   X'10'         FIRST TIME THROUGH IEBDSU           X010XX
*              LOW ORDER 4 BITS NOT USED-RESERVED                X010XX
*
UTTRFLAG DC    XL1'00'                 FLAG FIELD FOR USER AND NOTE-
*                                 LIST PROCESSING BY IEBVWS
* HIGH ORDER THREE BITS ARE USED INTERNALLY BY IEBVWS FOR NOTE-LIST AND
*        USER TTR PROCESSING
NOTELIST EQU   X'10'         ON = NOTELIST FOUND BY IEBVWS
*              LO ORDER 4 BITS NOT USED - RESERVED
*
*
OBCT     DC    HL2'0'        ACTUAL NO OUTPUT BLOCKS SAVED IN CORE
*
*XXXXXXXXXX ALL CONSTANTS BETW. HERE AND PREV X'S MUST BE CONTIGUOUS
         EJECT
***********************************************************************
BCB      DS    4F                 BUFFER CONTROL BLOCK
* THERE WILL ALWAYS BE AT LEAST 1 PR OF BUFFERS ALLOCATED - IF CORE
* SPACE EQUAL TO OR GREATER THAN THE SIZE OF THE 1ST PR OF BFRS IS
* AVAILABLE FOR THE COPY PHASE, THE 2ND BFR SPACE WILL BE ALLOCATED TO
* USE ALL OF THIS EXTRA CORE
* THE BCB IS RE-SET WHENEVER ANOTHER INPUT DATASET IS TO BE PROCESSED.
         ORG   BCB
FLG1     DC    X'0'          FLAG BYTE FOR BCB
P2FLG1   EQU   X'80'         ON = 2 DISCONTIGUOUS BUFFERS ARE ALLOCATED
IN2ND    EQU   X'40'         ON = PROCESSING BEING DONE WITHIN THE 2ND
*                                 BUFFER
STOPEND1 EQU   X'20'         ON = READ (IEBDRD) OR PREPARE TO WRITE
*                                 (IEBVWS) ONLY ONE BUFFER
*              LO ORDER 5 BITS NOT USED - RESERVED
BEGFST1  DC    AL3(0)        ADDR OF BEGINNING OF 1ST BUFFER AREA
ENDFST1  DC    AL4(0)        ADDR OF END OF 1ST BUFFER AREA
BEGFST2  DC    AL4(0)        ADDR OF BEGINNING OF 2ND BUFFER AREA
END2ND2  DC    AL4(0)        ADDR OF END OF 2ND BUFFER AREA
* END OF BUFFER CONTROL BLOCK (BCB)
***********************************************************************
*             3 FLAGS BELOW ARE IN FLAG FIELD BUILT AHEAD OF RECORDS IN
*         I/O BUFFER.  READ PCI SETS 'ENDPROC' AND 'LASTREC' AND WRITE
*         SETUP SETS 'WRTOVR'- FLAGS USED BY WRITE AND WRITE/PCI.
*                                                                     *
ENDPROC  EQU   X'80'         IN I/O BFR, THIS BIT ON IN FLGS =
*                            THIS IS THE LAST RECORD IN ANY BUFFER
LASTREC  EQU   X'40'         IN I/O BFR, THIS BIT ON IN FLGS =
*                            THIS IS THE LAST RECORD IN CURRENT BUFFER
WRTOVR   EQU   X'20'         IN I/O BFR, THIS BIT ON IN FLGS =
*                            THIS RECORD IS A SEGMENT (NOT THE LAST
*                            SEGMENT) OF AN OVERFLOW RECORD
         SPACE 2
MAXBUF   DC    F'0'          MAX BUFFER LENGTH SPECIFIED         X010XX
BUFSIZ   DC    F'0'          SIZE IN BYTES OF 1 IO BFR(BEG2ND1-BEGFST1)
MINSIZ   DC    F'0'               LENGTH OF MINIMUM SIZE OF I/O BFR-PR
MAXBLK   DC    F'0'               LENGTH OF 1/2 OF MINSIZ
READNEXT DC    AL4(0)        SET WHEN READ CALLED - TELLS WHERE TO READ
WRTNEXT  DC    AL4(0)             POINTER TO WHERE START WRITING FROM
LASTMREC DS    F POINTER TO LAST EOF IN A BUFFER NOT YET WRITTEN
EOREAD   DC    A(0)  POINTER TO END OF LAST RECORD READ-COMPRESS
         EJECT
         DS    0F
ADWANT   DC    X'00002000'   LENGTH OF MINIMUM USABLE AMT OF COREX010XX
*                            CORE FOR VARIABLE                   A45170
*                            CONDITIONAL GETMAIN                 A45170
ADWANTHI DC    X'00100000'   LENGTH OF MAXIMUM USABLE AMOUNT OF CORE
*                            (THIS IS AN ARBITRARY LIMIT)
ADGOT    DC    F'0'          GETMAIN PUTS ADDR OF CORE HERE
LENGOT   DC    F'0'          GETMAIN PUTS LENGTH OF CORE HERE
*                            ADGOT AND LENGOT ARE USED TO FREE CORE AT
*                            TERMINATION OF PROGRAM
FREEAMT  DC    X'00002000'   LENGTH OF CORE RELEASED FOR USE BY YA01689
*               USE BY SYSTEM (OPEN, CLOSE, EOV, SYNADAF, ETC)   A45170
*                   (THIS MUST BE A MULTIPLE OF 8)               A45170
FREEAMT2 DC    X'00000C00'   CORE FREED FOR TAPE WORKAREA        X010XX
* NOTE - VALUE OF 'FREEAMT' MAY BE CHANGED IF IT IS EITHER NOT ENOUGH
*        OR TOO MUCH CORE TO RELINQUISH FOR SYSTEM UTILIZATION.  IN ANY
*        CASE, THE VALUE OF THIS CONSTANT SHOULD BE CONSIDERED WITH RE-
*        LATION TO THE MINIMUM AMOUNT OF CORE SPECIFIED IN THE CONSTANT
*        NAMED 'ADWANT'.
ACOPYR1  DC    A(0)          ADDRESS OF COPYR1 HEADER            X010XX
*                            RECORD BUFFER                       X010XX
ACOPYR2  DC    A(0)          ADDRESS OF COPYR2 HEADER            X010XX
*                            RECORD BUFFER                       X010XX
ADNL     DC    F'0'          ADDR OF NOTE-LIST AREA
ADWK     DC    F'0'          ADDR OF WORK-AREA
WKLEN    EQU   128           LENGTH OF WKAREA - ALSO USED FOR SYSUT3 IO
HDRLEN   DC    H'344'        LENGTH OF HEADER RECORDS            X010XX
INBEGIN  DC    F'0'          ADDRESS OF START OF INDD TABLE
NXTINDS  DS    F             ADDR OF INDD TABLE ENTRY FOR THE CURRENT
*                            INPUT DATA SET'S DDNAME (IN THE CURRENT
*                            INDD GROUP)
REPLACOP EQU   SEBIT3        IF ON IN HI-ORDER BYTE OF AN INDD-TABLE
*                            ENTRY, THE REPLACE OPTION WAS SPECIFIED
*                            FOR THIS INPUT DATA SET.
SEBEGIN  DC    AL4(0)        ADDR OF BEGINNING OF SETAB
SESTOP   DC    F'0'          IF SELECTIVE OR EXCLUSIVE COPY, THIS IS
*                            THE ADDRESS (+1) OF THE END OF THE SETAB.
*                            IF FULL COPY, ADDR (+1) OF END OF INDDTAB.
ADNNPTRT DS    AL4           ADDR OF NEWNAME POINTER TABLE
NNTABAD  DC    F'0'               ADDR OF CURRENT NNPTRTAB ENTRY + 4
LOCOR    DC    F'0'          ADDR OF LOWEST CURRENTLY AVAILABLE
*                            ''FREE'' CORE BYTE
SVLO     DC    F'0'               AREA FOR RE-INITIALIZING 'LOCOR'
HICOR    DC    F'0'          ADDR OF HIGHEST CURRENTLY AVAILABLE
*                            ''FREE'' CORE BYTE (+1)
SVHI     DC    F'0'               ADDR OF HIGHEST ACQUIRED CORE (+1)
BUMP     DS    AL4           ADDR WHERE 'NEXT' ENTRY IN CTLTAB SHOULD
*                            BE PLACED
CTAD     DS    AL4           ADDR OF CONTROL TABLE - IF SELECTIVE COPY,
*                            THIS WILL BE SAME AS SEBEGIN.
TABAD    DS    AL4           SET TO ADDR OF NEXT CTLTAB ENTRY BY IEBMGI
ENCT     DC    HL2'0'        COUNT OF NBR OF ENTRIES IN CTLTAB (TOTAL)
*              IF THIS IS A SELECTIVE COPY, THIS COUNT WILL BE INI-
*              TIALIZED TO THE NUMBER OF ENTRIES IN SETAB.
COUNT    DC    HL2'0'        COUNT OF NBR OF ENTRIES IN SETAB IF SEL OR
*                            EXCL COPY, OR ZERO IF FULL COPY.
INDDCT   DC    AL2(0)        COUNT OF NO. INDD'S IN CURRENT STEP
NNCT1    DC    AL2(0)        NBR OF NEWNAMES SPECIFIED IN CURRENT SE-
*                            LECTIVE COPY STEP (IF NOT SEL CPY, = 0)
UFCT     DC    HL2'0'        COUNT OF NBR OF SELECTED MEMBERS YET TO BE
*                            FOUND ON ANY INPUT D.S. IN CURR INDD GROUP
DIRBCNT  DC    HL2'0'        MAX NBR BLOCKS WHICH OUT DIR CAN CONTAIN
NDBTR    DC    X'00'    COUNT OF MAX NUMBER OF DIR BLOCKS        A36049
*                      PER TRACK ALLOCATED ON THE OUTPUT DS      A36049
DBCNT    DC    H'0'          COUNT OF ACTUAL NUMBER OF BLOCKS MERGED
*                            TO THE OUTPUT DATA SET DIRECTORY
TRBALBUF DC    H'0'          AREA FOR USE IN CALCULATING TRACK BALANCE
         EJECT
ZROS     DC    F'0'          CONSTANT OF ZEROES
         DS    0D
DBKEY    DC    DL8'0'        KEY FROM CURR DIR. BLOCK IN BFR
OUTDAD1  DC    DL8'0'        DASD ADDR WHERE TO GET 1ST UN-RETAINED
*                            OUTPUT DIRECTORY BLOCK.  THIS ADDR IS ONLY
*                            VALID WHEN 'ODIC' BIT IS ON IN FLG6
OUTNAME  DC    CL8' '        NAME OF CURRENT OUTPUT DD
         SPACE 2
CCIMAGE  DS    10D                     SCAN CONTROL CARD BUFFER
         SPACE 2
WKA1     DC    10F'0'        VOLATILE WORK AREA FOR GENERAL USE
*
*****   PLEASE NOTE---    IEBSCN IS NOT THE ONLY MODULE WHICH USES
**                WKA1 FOR TEMPORARY WORK SPACE.
*                 HOWEVER, THE FOLLOWING 4 EQUATES ARE USED ONLY BY
*                 IEBSCN -
*
SARG     EQU   WKA1          TEMPORARY WORK AREA USED BY IEBSCN (SCAN)
*                            TO HOLD SEARCH ARGUMENT 8 BYTES LONG
SAVEPAPR EQU   WKA1+8        TEMPORARY WORK AREA USED BY IEBSCN (SCAN)
*                            TO HOLD PARTIAL PARAMETERS IF CONTROL CARD
*                            IS CONTINUED, 8 BYTES LONG.
LEFTPCNT EQU   WKA1+16       TEMPORARY WORK AREA USED BY IEBSCN (SCAN)
*                            TO HOLD COUNT OF LEFT PARENTHESIS SCANNED.
RGHTPCNT EQU   WKA1+18       TEMPORARY WORK AREA USED BY IEBSCN (SCAN)
*                            TO HOLD COUNT OF RIGHT PARENTHESIS SCANNED
*                            BOTH LEFTPCNT AND RGHTPCNT 2 BYTES EACH
*                            AND MUST BE CONTIGUOUS STORAGE.
         SPACE 1
ALO      DC    F'0'               WORKAREA FOR IEBMKO SUBROUTINE
NMAD     DC    F'0'          ADDRESS OF NAME IN THE SETAB TO BE COM-
*                            PARED AGAINST AN INPUT DIRECTORY ENTRY
DEPTR    DS    AL4           ADDR OF ''NEXT'' DIR. ENTRY IN BUFFER
*                            (SET BY IEBMGD SUBROUTINE)
BLKAD    DS    AL4           ADDR OF CURRENT DIRECTORY BLOCK IN BFR
IDEAD    DS    AL4           AREA INTO WHICH IEBMGI SUBR. PLACES THE
*                            CORE ADDRESS OF THE ''NEXT'' INPUT D.E.
CSTOREG  DC    3F'0'         SAVE AREA USED BY IEBSCN
RESET1   DS    4F                 AREA FROM WHICH R11-R14 ARE RESTORED
*                            BY IEBVTM WHEN IT IS TO EXIT TO IEBSCN
         SPACE 2
*        REGISTER SAVE AREAS
SV1      DC    18F'0'        REGISTER SAVE AREA FOR MAINFLOW
SV2      DC    18F'0'        REGISTER SAVE AREA FOR NON-RESIDENT RTNES
SV3      DC    18F'0'        REGISTER SAVE AREA FOR RESIDENT SUBRTNES
SV4      DC    18F'0'        REGISTER SAVE AREA FOR RESIDENT SUBRTNES
SV5      DC    18F'0'        SAVE AREA FOR IEBDV1
SV6      DC    18F'0'             SAVE AREA USED BY IEBVDM
SIOSAVE  DC    6F'0'         SAVEAREA FOR SIO APPENDAGE          X010XX
PCISAVE  DC    9F'0'         SAVEAREA FOR PCI APPENDAGE          X010XX
MCAMOD   DC    10F'0'             IEBMCA CHANGE AREA
* MCAMOD IS A PATCH-AREA FOR USE IN MAINTENANCE OF THIS PROGRAM
         EJECT
VIEBDV0  DC    V(IEBDV0)     ADDR OF ENTRY POINT (IN IEBDV1) TO OPEN
*                            AND VALIDATE SYSIN AND SYSPRINT DCB'S
VIEBDV1  DC    V(IEBDV1) ADDR VALIDATION ROUTINE OUTDCB AND FIRST INDD
VIEBDV2  DC    V(IEBDV2) ADDR VALIDATION ROUTINE OPEN/VALIDATE INDD
VIEBDV3  DC    V(IEBDV3) ADDR VALIDATION ROUTINE OPEN/VALIDATE SYSUT3
VIEBDV4  DC    V(IEBDV4) ADDR VALIDATION ROUTINE OPEN/VALIDATE SYSUT4
VIEBSCN  DC    V(IEBSCN)           ADDR OF CONTROL CARD SCAN ROUTINE
VIEBSEF  DC    V(IEBSCF) ENTRY POINT IN SCAN FOR ENTRY FROM SYSIN EODAD
*  HANDLER IN MAINFLOW IEBEOF
VIEBEOF  DC    V(IEBDSCEF)   EODAD HANDLER FOR SYSIN EOF
VIEBCER  DC    V(IEBDSCCE)   SYNAD ROUTINE FOR READER ERROR
VIEBVMS  DC    V(IEBVMS)           ADDR OF MESSAGE WRITING ROUTINE
VIEBPER  DC    V(IEBDSCPE)   SYNAD ROUTINE FOR PRINTER ERROR
VIEBMNI  DC    V(IEBDSCNI)   ADDR OF ENTRY POINT IN MAIN PGM - TO START
*                            PROCESSING THE 'NEXT' INPUT DATA SET IN
*                            THE CURRENT 'INDD-GROUP'
VIEBSCX  DC    V(IEBDSCSX)   E.P. IN ROOT SEGMENT TO GO FROM IEBVTM TO
*                                 IEBSCN
VIEBGME  DC    V(IEBDSCME)   ADDR OF E.P. IN ROOT SEGMENT - FOR USE
*                                 WHEN IT IS NECESSARY TO RE-ISSUE THE
*                                 GETMAIN AND RE-ALLOCATE CORE
VIEBM04  DC    V(IEBDSCM4)   E.P. IN ROOT SEGMENT TO GO FROM IEBVDM TO
*                                 IEBDV4
VIEBRTM  DC    V(IEBVDRTM)   E.P. IN IEBVDM TO RETURN FROM IEBDV4
VIEBVCT  DC    V(IEBVCT)     ADDR OF SETAB/CTLTAB/NNTAB ALPH SORT RTNE
VIEBVTT  DC    V(IEBVTT)     ADDR OF TTR SORT RTNE FOR CTLTAB
VIEBMGD  DC    V(IEBDSCGD)   ROUTINE TO FIND NEXT DIR ENTRY IN BUFFER
VIEBMBT  DC    V(IEBDSCBT)   ROUTINE TO BUILD CTLTAB AND SPILL TO UT3
VIEBMGI  DC    V(IEBDSCGI)   ROUTINE TO LOCATE A DIR ENTRY VIA CTLTAB
VIEBMKO  DC    V(IEBDSCKO)   ROUTINE TO RETAIN OUTPUT DIR BLOCKS
VIEBDRD  DC    V(IEBDRD)           ADDR OF READ ROUTINE
VIEBVWS  DC    V(IEBWSU)     ADDR. OF RTN TO PREPARE RECORDS
*                            TO BE WRITTEN - PREVIOUSLY NAMED IEBVWS
VTTOCC   DC    V(IEBDSTOC)   ROUTINE TO CONVERT TTR TO MBBCCHHR
VCCOTT   DC    V(IEBDSCOT)   ROUTINE TO CONVERT MBBCCHHR TO TTR
VIEBDWR  DC    V(IEBDWR)           ADDR OF WRITE ROUTINE
VIEBIOE  DC    V(IEBIOE)          ADDR OF RTNE TO SET UP MSG FOR I/O
*                                 ERROR, VIA SYNADAF
VIEBMNM  DC    V(IEBDSCNM)   ROUTINE TO CONTROL MBR COPYING WHEN NOT
*                            COMPRESSING, DEBLOCKING, OR REBLOCKING
VIEBDRB  DC    V(IEBDRB)           ADDR OF REBLOCK/DEBLOCK RTNE
VIEBMCM  DC    V(IEBMCM)          ADDR OF COMPRESS-IN-PLACE ROUTINE
VIEBVDM  DC    V(IEBVDM)           ADDR OF DIRECTORY MERGE RTNE
VIEBVTM  DC    V(IEBVTM)          ADDR OF TERMINATION ROUTINE
VIEBDSRE DC    V(IEBDSRE)    ROUTINE TO TRANSFER CONTROL TO      A33288
*                              IEBIOE FROM IEBDRD                A33288
VIEBDSWE DC    V(IEBDSWE)    ROUTINE TO TRANSFER CONTROL TO      A33288
*                              IEBIOE FROM IEBDWR                A33288
VIEBDRDR DC    V(IEBDRDR)    RETURN POINT IN IEBDRD FROM IEBIOE  A33288
VIEBDWRR DC    V(IEBDWRR)    RETURN POINT IN IEBDWR FROM IEBIOE  A33288
VIEBBAM  DC    V(IEBBAM)          BUFFER ALLOCATION ROUTINE      S20201
VLDUL1   DC    V(IEBLDUL1)   LOAD INITIALIZATION ROUTINE         X010XX
VLDUL2   DC    V(IEBLDUL2)   UNLOAD INITIALIZATION ROUTINE       X010XX
VIEBIOE2 DC    V(IEBIOE2)    LOAD DCB EODAD ROUTINE              X010XX
VIEBIOE3 DC    V(IEBIOE3)    LOAD DCB SYNAD ROUTINE              X010XX
VIEBIOE4 DC    V(IEBIOE4)    UNLOAD DCB SYNAD ROUTINE            X010XX
VDSFRC   DC    V(IEBDSFRC)   ENTRYPOINT IN IEBDSCPY TO ISSUE     X010XX
*                            FREEMAIN FOR LOAD/UNLOAD DATAMANAG. X010XX
*                            MODULES                             X010XX
VDSIOE2  DC    V(IEBDSOE2)   EODAD ENTRY POINT IN MAINFLOW       X010XX
VRSAM    DC    V(IEBRSAM)    LOAD DIRECTORY ROUTINE              X010XX
VRSAM1   DC    V(IEBRSAM1)   LOAD MEMBER DATA  READ ROUTINE      X010XX
VWSAM    DC    V(IEBWSAM)    WRITE MEMBER AND NOTELIST           X010XX
VWSAM1   DC    V(IEBWSAM1)   WRITE HEADER RECORD                 X010XX
VIEBDSU  DC    V(IEBDSU)     UNLOAD DIRECTORY BUILD ROUTINE      X010XX
VIEBDSU1 DC    V(IEBDSU1)    UNLOAD CTLTAB MODIFY ROUTINE        X010XX
VIEBCNVT DC    V(IEBCNVT)    IEBCOPY TTR-TO-MBBCCHHR             X010XX
*                              CONVERT ROUTINE                   X010XX
VIEBCNV1 DC    V(IEBCNVT1)    IEBCOPY CONVERT BACK ROUTINE       X010XX
         EJECT
         DS    0F
LIST1    DC    VL4(IEBDVJCB)  JFCB EXIT
JFCBECON EQU   X'87'  JFCB EXIT+LAST ENTRY CODE
LIST2    DC    AL4(0) ADDRESS OF EXLST HANDLER FILLED IN BY IEBDV0
LIST2SET EQU   X'85' DCB EXIT LIST FOR SYSIN/SYSPRINT CODE, LAST ENTRY
LIST4    DC    AL4(0)                  DCB EXIT ADDRESS FILLED IN BY
*                                 IEBDV1 ROUTINE
         DC    VL4(IEBDVJCB)  JFCB EXIT
LIST5    DC    X'85'         THIS IS THE DCB EXIT LIST FOR       X010XX
         DC    AL3(0)           THE LOAD DCB                     X010XX
LIST6    DC    X'85'         THIS IS THE DCB EXIT LIST FOR       X010XX
         DC    AL3(0)           THE UNLOAD DCB                   X010XX
         SPACE 2
WRPCICNT DS    F COUNT OF PCI'S TAKEN- USED BY READ BACK CHECK
         SPACE 2
WRPTR1   DC    A(WRCW11)  CURRENT WRITE CCW ADDRESS
WRPTR2   DC    A(WRCW21) NEXT WRITE CCW ADDRESS
RDPTR1   DC    A(RDCW11)  CURRENT READ CCW ADDRESS
RDPTR2   DC    A(RDCW21)  NEXT READ CCW ADDRESS
RDCKPTR1 DC    A(RDCKCW11)  CURRENT READ BACK CHECK CCW ADDRESS
RDCKPTR2 DC    A(RDCKCW21)  NEXT READ BACK CHECK CCW ADDRESS
         SPACE 2
* FOLLOWING FIELDS ARE USED FOR RESETTING APPROPRIATE DCB'S, ETC.,
* UPON THE OCCURRENCE OF AN ERROR CONDITION (INCLUDING I/O ERRORS).
OUTPTTR  DS    2F TTRNTB OF LAST VALID EOF ON OUTPUT DATA SET
SYS4TTR  DS    2F TTRNTB OF LAST VALID EOF ON SYSUT4 DATA SET ORIGINAL
SYS3TTR  DS    2F TTRNTB OF LAST VALID EOF ON SYSUT3 DATA SET ORIGINAL
         SPACE 1
OUTDS1   DS    2F TTRNTB - TTRN NEXT RECORD TO BE WRITTEN AND CURRENT
*   TRACK BALANCE OF OUTPUT DATA SET. ORIGINALLY FROM DS1STAR FIELD
*   OF DSCB.
UT3DS1   DS    2F TTRNTB- TTRN NEXT RECORD TO BE WRITTEN TO SYSUT3 AND
*  TRACK BALANCE FOR CURRENT TRACK.ORIGINALLY FROM DS1STAR FIELD DSCB
         SPACE 1
UT4DS1   DS    2F TTRNTB- TTRN NEXT RECORD TO BE WRITTEN TO SYSUT4 AND
*  TRACK BALANCE FOR CURRENT TRACK.ORIGINALLY FROM DS1STAR FIELD DSCB
*   OUTPUT DATA SET.
OUTFDAD  DC    2F'0'              MBBCCHHR FOR RE-INITIALIZING OUTDCB
UT3FDAD  DC    2F'0'              MBBCCHHR FOR RE-INITIALIZING UT3DCB
UT4FDAD  DC    2F'0'              MBBCCHHR FOR RE-INITIALIZING UT4DCB