         MACRO
&NAME    IGGBISAM &OPTCD=
         GBLB   &CPOPS
         GBLC  &LIB
*    01/05/73          LEVEL=01
.*         RELEASE OS/VS2-02 DELETIONS/CHANGES
         AIF    (&CPOPS).NOCPOPS
&CPOPS   SETB   1
         IGGCPOPS
.NOCPOPS ANOP
&NAME    DSECT
DCWFCP4  DS    A                        ADDRESS FIRST AVAILABLE CP4-5-6
DCWFCP7  DS    A                        ADDRESS FIRST AVAILABLE CP7
DCWNUCPS DS    CL1                      NO. UNSCHED IOBS FOR HI LVL IX
DCWNUCP4 DS    CL1                      NO. UNSCHED IOBS FOR CP4-5-6
DCWNUCP7 DS    CL1                      NO. UNSCHED IOBS FOR CP7
DCWNLSD  DS    CL1                      NO.HI LVL INDEXES SRCHED ON DEV
DCWFIOBU DS    A                        A(FIRST UNSCHED IOB)
DCWLIOBU DS    A                        A(LAST UNSCHED IOB)
DCWFUPDI DS    A                        A(FIRST IOB ON UPDATE Q)
DCWLUPDI DS    A                        A(LAST IOB ON UPDATE Q)
DCWHIAV  DS    CL1                      B0 ON MEANS HI LVL IND CP AVAIL
*                                       B1 ON MEANS HI LVL IND IN CORE
DCWWKNI  DS    CL1                      BO ON MEANS WRITE KN IN PROCESS
*                                       B1 FIRST TIME SWITCH
*                                       B2 SAME MODULE SWITCH
*                                       B3 ADD TO END USE - CP11,13
*                                       B4 END BECAUSE OF EOF - CP12,13
*                                       B5 CP11 - 1ST USE BY GIVEN WKN
*
DCWNLEVC DS    CL1                      COUNTER USED BY WRITE KN APP
DCWNUWKN DS    CL1                      NO. OF IOBS AWAITING W KN CP
DCWMSHIL DS    A                        LAST ACTIVE ENTRY HI IND W KN
DCWHIRPS DS    CL1                      DCBHIRPD OR DCBHIRSH
DCWNACT  DS    CL1                      NO. NON-W KN MACROS BEFORE W KN
DCWSIZE  DS    CL2                      SIZE OF DCB WA+ CP'S+ WKN WA
DCWOPCLS DS    CL8                      DATA SAVED BY COMMON OPEN
DCWFIOBE DS    0CL4
DCWERRCT DS    1C                       NO. OF SLOTS ON ERROR Q
         DS    3C                       A(FIRST IOB ON ERRORQ)
DCWLIOBE DS    A                        A(LAST IOB ON ERROR Q)
DCWSIOA  DS    A                        SECOND SIO APPENDAGE (RPS ONLY)
DCWDCBFA DS    F                        DCB FIELD AREA PTR
DCWIPG   DS    H                        (VLR) PRIME RCD OVHD - NON LAST
DCWLPG   DS    H                        (VLR) PRIME RCD OVHD - LAST
DCWIOG   DS    H                        (VLR) OVFLO RCD OVHD - NON LAST
DCWLOG   DS    H                        (VLR) OVFLO RCD OVHD - LAST
DCWLEN   EQU   *-&NAME                 LENGTH OF W.A. IN BYTES
         MEND
