         MACRO
&NAME    IGGSCAN  &OPTCD=
         GBLC  &LIB
         GBLB  &CPOPS
.*         RELEASE OS/VS2-02 DELETIONS/CHANGES
*    01/10/73          LEVEL=01
         AIF   (&CPOPS).NOCPOPS
&CPOPS   SETB  1
         IGGCPOPS
.NOCPOPS ANOP
&NAME    DSECT                          SCAN MODE WORK AREA
W1ECBI   DS    F                        ECBI-INPUT CONTROL BLOCK
W1IOBI   DS    0BL44                    LAYOUT OF IOBI
W1IF1    DS    BL1                      FLAGS1 BYTE
W1IF2    DS    BL1                      FLAGS2 BYTE
W1ISENSE DS    BL2                      SENSE INFO. FROM IOS
W1IECBAD DS    A                        ECB POINTER
W1ICSW   DS    0BL8                     CSW FROM IOS
W1KEY    DS    0BL1
W1COMAD  DS    A                        ADDR LAST CCW EXECUTED + 8
W1STATUS DS    BL2                      STATUS
W1COUNT  DS    BL2                      RESIDUAL COUNT
W1ISIOCC DS    0BL1                     SIO CONDITION CODE
W1ICPS   DS    A                        ADDRESS 1ST CP TO BE EXECUTED
W1IWGHT  DS    0BL1                     WEIGHT
W1IDCBAD DS    A                        DCB POINTER
W1ICPRES DS    A                        CP RESTART ADDRESS
W1IBLKCT DS    BL2                      BLK COUNT
W1IERRCT DS    BL2                      ERROR COUNT (RETRIES)
W1IDAD   DS    0BL8                     IOBI DIR.ACCESS DEVICE ADDRESS.
W1IMBBCC DS    BL5                      MBBCC
W1IHHR   DS    BL3                      HHR
W1IEXTEN DS    BL2                      INPUT APPENDAGE CODE
W1CPNUM  DS    BL2                      USED AS SAVE AREA BY SCHED RTN
         DS    0F                       TO RELOC ON FULL WORD
W1ECBO   DS    F                        ECBO-OUTPUT EVENT CONTROL BLOCK
W1IOBO   DS    0BL44                    LAYOUT OF IOBO
W1OF1    DS    BL1                      FLAGS 1 BYTE
W1OF2    DS    BL1                      FLAGS 2 BYTE
W1OSENSE DS    BL2                      SENSE INFO. FROM IOS
W1OECBAD DS    A                        ECB POINTER
W1OCSW   DS    0BL8                     CSW FROM IOS
W1KEYO   DS    0BL1
W1COMADO DS    A                        ADDR LAST CCW EXECUTED&8
W1STATO  DS    BL2                      STATUS BYTES
W1COUNTO DS    BL2                      RESIDUAL COUNT
W1OSIOCC DS    0BL1                     SIO CONDITION CODE
W1OCPS   DS    A                        ADDRESS 1ST CCW TO BE EXECUTED
W1OWGHT  DS    0BL1                     WEIGHT
W1ODCBAD DS    A                        DCB POINTER
W1OCPRES DS    A                        CP RESTART ADDRESS
W1OBLKCT DS    BL2                      BLK CNT
W1OERRCT DS    BL2                      ERROR COUNT (RETRIES)
W1ODAD   DS    0BL8                     IOBO DIR. ACCESS DEVICE ADDRESS
W1OMBBCC DS    BL5                      MBBCC
W1OHHR   DS    BL3                      HHR
W1OEXTEN DS    BL2                      OUTPUT APPENDAGE CODE
W1SAV7   DS    BL2                      USED AS SAVE AREA BY SCHED RTN
W1OSBIT1 DS    BL1                      OVERALL STATUS BYTE 1
W1OSBIT2 DS    BL1                      OVERALL STATUS BYTE 2
W1OSBIT3 DS    BL1                      OVERALL STATUS BYTE 3
W1ICNOT  DS    BL1                      BUFNO/2(USED TO SCHEDULE IP-OP)
W1KEYBLK DS    BL4                      USED BY SETL < FOR ADDR WITHIN
*                                       BLOCK OF THE REQUESTED RECORD
W1LPDR   DS    0BL8                     LAST PRIME DATA RCD READ.
W1LMBBCC DS    BL5                      LPDR MBBCC
W1LHH    DS    BL2                      LPDR HH
W1LR     DS    BL1                      LPDR R
W1CBF    DS    A                        CURRENT BUFFER ADDRESS
W1EOB    DS    A                        END OF BUFFER ADDRESS
W1COUNTR DS    BL2                      CTR OF RETRIES IN WRITE CHECK
PRIMEIND DS    BL1                      SWITCH FOR TESTING SAME DEVICE
FIXIND   DS    BL1                      TEMPORARY STORAGE
W1FCPS   DS    A                        1ST CP SCHEDULED (WRITE)
W1QTABLE DS    0BL60                    QTABLE
W1FR1ST  DS    A                        POINTER TO 1ST CP ON FREE Q
W1FRLAST DS    A                        POINTER TO LAST CP ON FREE Q
         DS    BL2                      (MUST BE ZERO)
W1FREEC  DS    BL2                      NO. BUFFERS ON FREE Q
W1RD1ST  DS    A                        POINTER TO 1ST CP ON READ Q
W1RDLAST DS    A                        POINTER TO LAST CP ON READ Q
W1READR  DS    BL2                      RESIDUE BUFS ON READ Q -UNUSED
W1READC  DS    BL2                      NO. OF BUFS ON READ Q
W1US1ST  DS    A                        POINTER OT 1ST CP ON USER Q
W1USLAST DS    A                        POINTER TO LAST CP ON USER Q
         DS    BL2                      (MUST BE ZERO)
W1USERC  DS    BL2                      NO. OF BUFS ON USER Q
W1PX1ST  DS    A                        POINTER TO 1ST CP ON PUTX Q
W1PXLAST DS    A                        POINTER TO LAST CP ON PUTX Q
         DS    BL2                      (MUST BE ZERO)
W1PUTXC  DS    BL2                      NO. OF BUFFERS ON PUTX QUEUE
W1WR1ST  DS    A                        POINTER TO 1ST CP ON WRITE Q
W1WRLAST DS    A                        POINTER TO LAST CP ON WRITE Q
         DS    BL2                      (MUST BE ZERO)
W1WRITEC DS    BL2                      NO. OF BUFFERS ON WRITE QUEUE
W1WAREA  DS    0BL36                    AREA FOR TRACK INDEX ENTRIES
W1WCOUNT DS    BL8                      COUNT OF CURRENT INDEX ENTRY
W1WCNXDM DS    BL8                      COUNT OF NEXT NORMAL OR DUMMY
W1WOVFL  DS    BL10                     DATA OF CURRENT OVERFLOW ENTRY
W1WDNXDM DS    BL10                     DATA OF NEXT NORMAL OR DUMMY
W1WPLEN  DS    BL2                      BYTE LENGTH OF WORKAREA
W1CURLEN DS    BL2                      LENGTH OF CURRENT LOGICAL REC
W1TEMPSA DS    BL4                      TEMPORARY STORAGE
W1REGSV2 DS    BL4                      AREA TO SAVE CONTENTS OF A REG
W1REGSAV DS    BL4                      AREA TO SAVE CONTENTS OF A REG
W1REGSV3 DS    BL4                      TEMPORARY STORAGE
W1CP23PT DS    A                        ADDRESS OF CP 23
W1CP26PT DS    A                        ADDRESS OF CP 26
W1CP25PT DS    A                        ADDRESS OF CP 25
         DS    0D
W1CP24   DS    0BL72                    CHAN PROG 24 READ TRACK INDEXES
         IGGCP24
         DS    0D                       ROUND TO DOUBLE WORD BDY
W1WDCXDM DS    CL10                     VLR DATA FOR CURR NORMAL IX
W1ISECT  DS    1C                       CURRENT INPUT SECTOR VALUE
W1OSECT  DS    1C                       CURRENT OUTPUT SECTOR VALUE
W1DCBFA  DS    1F                       DCB FIELD AREA PTR
         DS    0D                       ROUND TO NEXT DBL WD.
W1VLRLN  EQU   *-&NAME                  LENGTH OF BASIC SECTION.
*
W1ICPEXT CCW   SETSECT,0,CC,1           RPS CP EXT. FOR INPUT
W1ICPTIC CCW   TIC,0,0,0                SET SECTOR AND TIC
*
W1OCPEXT CCW   SETSECT,0,CC,1           RPS CP EXT. FOR OUTPUT
W1OCPTIC CCW   TIC,0,0,0                SET SECTOR AND TIC
*
W1RDCNT  CCW   RDCNT,0,CC+SKIP,0        POSITION TO NEXT RECORD
W1RDSECT CCW   RDSECT,0,0,0             GET SECTOR FOR NEXT GET
*
W1CN5SAV DS    A                        SAVE AREA TO RESTORE TIC
W1RPSSA  DS    4F                       WORK AREA (SIO APPENDAGES)
W1TOTAL  DS    H                        RUNNING TRACK BALANCE
W1RECLEN DS    H                        MINIMUM LENGTH PRIME RECORDS
W1OVLEN  DS    H                        MINIMUM LENGTH OVERFLOW RECORDS
W1FSTSH  DS    H                        RUNNING BALANCE TO FIRST SHARED
*   LIMITS FOR OVERFLOW SECTOR GUESSES VARIABLE
W1RPSC1  DS    FL1                      LOWER LIMIT CYLINDER OVERFLOW
W1RPSC2  DS    FL1                      UPPER LIMIT CYLINDER OVERFLOW
W1RPSI1  DS    FL1                      LOWER LIMIT IND OVERFLOW
W1RPSI2  DS    FL1                      UPPER LIMIT IND OVERFLOW
*
W1RPSLN  EQU   *-&NAME                  LENGTH INCLUDING RPS FIELDS.
         MEND
