         MACRO
&NAME    JDPARM &CONVERT=CHAR,&KEY=,&KEYDFLT=,&MAXLEN=,&MINLEN=1,      +
               &CONLEN=,&HIGH=2147483647,&LOW=0,&LEVNUM=1,&LEVLEN=,    +
               &CHOICE1=,&CHOICE2=,&CHOICE3=,&CHOICE4=,&CHOICE5=,      +
               &CHOICE6=,&CHOICE7=,&CHOICE8=,&REPEAT=0,            @H1C+
               &FSTCHAR=,&OTHCHAR=,&FSTSPEC=,&OTHSPEC=             @H3A
.**********************************************************************
.*                                                                    *
.*   MODULE NAME = IEFJDPRM                                        @H1C
.*                                                                    *
.*   DESCRIPTIVE NAME = JCL PARAMETER DEFINITION                      *
.*                                                                    *
.*   COPYRIGHT = 5740-XYN COPYRIGHT IBM CORP. 1982,1983,              *
.*                LICENSED MATERIAL - PROGRAM,                        *
.*                PROPERTY OF IBM, REFER TO COPYRIGHT                 *
.*                INSTRUCTIONS FORM G120-2083                         *
.*                                                                    *
.*   STATUS = OS/VS2 JBB1329                                          *
.*                                                                    *
.*   FUNCTION = JDPARM MACRO  GENERATES  THE SUBPARAMETER SECTION     *
.*              IN THE JDT TO BE ASSOCIATED WITH THE KEYWORD THAT     *
.*              WAS SPECIFIED IN THE PREVIOUS JDKEY MACRO.            *
.*                                                                    *
.*     NOTES = SPECIFY THE APOSTROPHE AND THE AMPERSAND AS         @H3A
.*             DOUBLE CHARACTERS FOR SPECIAL CHARACTERS.           @H3A
.*                                                                    *
.*      DEPENDENCIES = IF JDKEY MACRO IS INVOKED WITH CONVERT=     @H3A
.*                     REFERRAL, THEN  ALL THE  PARAMETERS FOR     @H3A
.*                     THAT KEYWORD MUST BE REFERRAL ALSO.  IF     @H3A
.*                     JDKEY IS  NOT REFERRAL, ONLY CONVERSION     @H3A
.*                     TYPES  CHAR, INTEGER,  HEX,  AND CHOICE     @H3A
.*                     WILL BE  SUPPORTED FOR PARAMETER TYPES.     @H3A
.*                                                                    *
.*      RESTRICTIONS = 1) THE  JDPARM MACRO  CAN  ONLY  FOLLOW        *
.*                     JDKEY, ENDSUB, JDSUB, OR ANOTHER JDPARM        *
.*                     MACRO.                                         *
.*                     2) IF JDPARM IS  INVOKED  WITHIN A LIST     @H3A
.*                     ITEM  DEFINITION, ONLY ONE  IS ALLOWED.     @H3A
.*                     THE  REPEAT  KEYWORD  MUST  BE  USED TO     @H3A
.*                     CREATE IDENTICAL LIST ITEM DEFINITIONS.     @H3A
.*                                                                    *
.*   ENTRY POINT = N/A                                                *
.*                                                                    *
.*   MODULE TYPE = MACRO                                              *
.*                                                                    *
.*     PROCESSOR = ASSEMBLER                                          *
.*                                                                    *
.*     INPUT = THE FOLLOWING MAY BE SPECIFIED AS PARAMETERS TO JDPARM *
.*                                                                    *
.*           PARAMETER          DESCRIPTION                           *
.*                                                                    *
.*           - &NAME            USED ONLY AS A LABEL ON THE OUTPUT    *
.*           - &CONVERT=        CONVERSION TYPE OF PARAMETER          *
.*           - &KEY=            KEY FOR THIS PARAMETER                *
.*           - &KEYDFLT=        DEFAULT VALUE FOR KEY                 *
.*           - &MAXLEN=         MAXIMUM LENGTH OF PARAMETER        @H1C
.*           - &MINLEN=         MINIMUM LENGTH OF PARAMETER        @H1A
.*           - &CONLEN=         CONVERSION LENGTH OF INTEGER          *
.*                              OR HEX DATA                        @H1A
.*           - &HIGH=           HIGH RANGE OF INTEGER                 *
.*                              OR HEX DATA                        @H1A
.*           - &LOW=            LOW RANGE OF INTEGER                  *
.*                              OR HEX DATA                        @H1A
.*           - &LEVNUM=         MAXIMUM NUMBER OF LEVELS FOR CHAR  @H1A
.*           - &LEVLEN=         MAXIMUM LENGTH OF EACH LEVEL       @H1A
.*           - &FSTCHAR=        FIRST CHARACTER TYPE DEFINITION    @H2A
.*           - &OTHCHAR=        OTHER CHARACTER TYPE DEFINITION    @H2A
.*           - &FSTSPEC=        SPECIAL FIRST CHARACTER DEFINITION @H3A
.*           - &OTHSPEC=        OTHER THAN THE FIRST DEFINITION    @H3A
.*           - &CHOICE1= THRU   CHARACTER STRINGS AND THEIR BYTE      *
.*             &CHOICE8=          VALUES DEFINED FOR PARAMETERS       *
.*           - &REPEAT=         MAKES DUPLICATIONS OF SAME PARAMETER  *
.*                              FUNCTIONS AND SPECIFICATIONS          *
.*                                                                    *
.*     OUTPUT = SUBPARAMETER SECTION FOR A PREVIOUS KEYWORD           *
.*                                                                    *
.*     INVOCATION = THE FOLLOWING CHART SHOWS WHAT KEYWORDS MAY       *
.*                  BE SPECIFIED WITH EACH TYPE OF CONVERSION:        *
.*                  (R=REQUIRED; O=OPTIONAL; N=NOT USED)              *
.*                                                                    *
.*     _________________________________________________________      *
.*     ×         ×       ×       ×         ×        ×          ×      *
.*     × KEYWORD × CHAR  ×  HEX  × INTEGER × CHOICE × REFERRAL ×      *
.*     ×_________×_______×_______×_________×________×__________×      *
.*     ×         ×       ×       ×         ×        ×          ×      *
.*     × KEY     ×   R   ×   R   ×    R    ×   R    ×    R     ×      *
.*     ×_________×_______×_______×_________×________×__________×      *
.*     ×         ×       ×       ×         ×        ×          ×      *
.*     × KEYDFLT ×   N   ×   N   ×    N    ×   O    ×    N     ×      *
.*     ×_________×_______×_______×_________×________×__________×      *
.*     ×         ×       ×       ×         ×        ×          ×      *
.*     × MAXLEN  ×   R   ×   R   ×    R    ×   N    ×    N     ×      *
.*     ×_________×_______×_______×_________×________×__________×      *
.*     ×         ×       ×       ×         ×        ×          ×      *
.*     × MINLEN  ×   O   ×   O   ×    O    ×   N    ×    N     ×      *
.*     ×_________×_______×_______×_________×________×__________×      *
.*     ×         ×       ×       ×         ×        ×          ×      *
.*     × CONLEN  ×   N   ×   R   ×    R    ×   N    ×    N     ×      *
.*     ×_________×_______×_______×_________×________×__________×      *
.*     ×         ×       ×       ×         ×        ×          ×      *
.*     × HIGH    ×   N   ×   O   ×    O    ×   N    ×    N     ×      *
.*     ×_________×_______×_______×_________×________×__________×      *
.*     ×         ×       ×       ×         ×        ×          ×      *
.*     × LOW     ×   N   ×   O   ×    O    ×   N    ×    N     ×      *
.*     ×_________×_______×_______×_________×________×__________×      *
.*     ×         ×       ×       ×         ×        ×          ×      *
.*     × LEVNUM  ×   O   ×   N   ×    N    ×   N    ×    N     ×      *
.*     ×_________×_______×_______×_________×________×__________×      *
.*     ×         ×       ×       ×         ×        ×          ×      *
.*     × LEVLEN  ×   O   ×   N   ×    N    ×   N    ×    N     ×      *
.*     ×_________×_______×_______×_________×________×__________×      *
.*     ×         ×       ×       ×         ×        ×          ×      *
.*     × FSTCHAR ×   O   ×   N   ×    N    ×   N    ×    N     ×      *
.*     ×_________×_______×_______×_________×________×__________×      *
.*     ×         ×       ×       ×         ×        ×          ×      *
.*     × OTHCHAR ×   O   ×   N   ×    N    ×   N    ×    N     ×      *
.*     ×_________×_______×_______×_________×________×__________×      *
.*     ×         ×       ×       ×         ×        ×          ×      *
.*     × FSTSPEC ×   O   ×   N   ×    N    ×   N    ×    N     ×      *
.*     ×_________×_______×_______×_________×________×__________×      *
.*     ×         ×       ×       ×         ×        ×          ×      *
.*     × OTHSPEC ×   O   ×   N   ×    N    ×   N    ×    N     ×      *
.*     ×_________×_______×_______×_________×________×__________×      *
.*     ×         ×       ×       ×         ×        ×          ×      *
.*     × CHOICE# ×   N   ×   N   ×    N    ×   R(1) ×    N     ×      *
.*     ×_________×_______×_______×_________×________×__________×      *
.*     ×         ×       ×       ×         ×        ×          ×      *
.*     × REPEAT  ×   O   ×   O   ×    O    ×   O    ×    O     ×      *
.*     ×_________×_______×_______×_________×________×__________×      *
.*     (1) NOTE: AT LEAST ONE CHOICE MUST BE SPECIFIED.               *
.*                                                                    *
.*   EXIT NORMAL =                                                    *
.*   CONDITION-NO ERRORS DETECTED                                     *
.*   OUTPUT    -NO MNOTE ISSUED. SEVERITY CODE=0.                     *
.*                                                                    *
.*   EXIT NORMAL =                                                    *
.*   CONDITION-ERROR CONDITION DETECTED BY THE JDPARM MACRO.          *
.*   OUTPUT    -INFORMATIONAL MNOTES WITH SEVERITY CODE 4             *
.*              ISSUED WHEN A PARAMETER SPECIFIED IS INCORRECT.       *
.*              THE SPECIFIED PARAMETER IS IGNORED AND/OR THE         *
.*              DEFAULT VALUE IS ASSUMED FOR THAT PARAMETER.          *
.*              (SEE MESSAGES BELOW)                                  *
.*                                                                    *
.*   EXIT ERROR =                                                     *
.*   CONDITION-SEVERE ERROR DETECTED BY THE JDPARM MACRO.             *
.*   OUTPUT    -ERROR MNOTES WITH SEVERITY CODE 12                    *
.*              ISSUED WHEN MACRO IS NOT INVOKED IN THE CORRECT       *
.*              ORDER (SEE RESTRICTIONS) OR CERTAIN VALUES FOUND      *
.*              MAY CAUSE SYSTEM ERRORS.  THE MACRO WILL ATTEMPT      *
.*              TO SCAN FOR ADDITIONAL ERRORS.                        *
.*              (SEE MESSAGES BELOW)                                  *
.*                                                                    *
.*   EXIT ERROR =                                                     *
.*   CONDITION-TERMINATING ERROR DETECTED BY THE JDPARM MACRO.        *
.*   OUTPUT    -ERROR MNOTE WITH SEVERITY CODE 16                     *
.*              ISSUED WHEN JDPARM MACRO IS INVOKED PRIOR TO          *
.*              THE JDTMAC MACRO OR THE CONVERSION SPECIFIED          *
.*              BY THIS MACRO IS INCONSISTENT WITH THE JDKEY       @H2A
.*              CONVERSION OF REFERRAL. THE MACRO EXPANSION WILL   @H2A
.*              BE TERMINATED AS A RESULT OF THE ERROR.               *
.*              (SEE MESSAGES BELOW)                                  *
.*                                                                    *
.*   EXTERNAL REFERENCES = JDSCAN MACRO IS USED FOR VALIDATION        *
.*                         OF CHOICE SYMBOL SPECIFICATIONS.           *
.*                         I.E., 1-8 CHARACTERS, FIRST CHARACTER      *
.*                         MUST BE ALPHABETIC OR NATIONAL (@,#,$);    *
.*                         2-7 MUST BE ALPHANUMERIC OR NATIONAL.   @R6A
.*                                                                    *
.*   TABLES = NONE                                                    *
.*                                                                    *
.*   MESSAGES = (MNOTES)                                              *
.*                                                                    *
.*   INFORMATIONAL MNOTES = CONVERT=CHAR                              *
.*    MNOTE 4,'CHOICE KEYWORDS FOR CONVERT=CHAR HAVE NO MEANING.      *
.*             CHOICE PARAMETERS ARE IGNORED'                      @R5A
.*    MNOTE 4,'FSTCHAR KEYWORD HAS MULTIPLE DEFINED                   *
.*             SUBPARAMETERS.'                                     @H2A
.*    MNOTE 4,'OTHCHAR KEYWORD HAS MULTIPLE DEFINED                   *
.*             SUBPARAMETERS.'                                     @H2A
.*                                                                    *
.*   INFORMATIONAL MNOTES = CONVERT=HEX                               *
.*    MNOTE 4,'CHOICE KEYWORDS FOR CONVERT=HEX HAVE NO MEANING.       *
.*             CHOICE PARAMETERS ARE IGNORED'                      @H1A
.*    MNOTE 4,'LEVNUM AND/OR LEVLEN FOR CONVERT=HEX HAVE NO MEANING.  *
.*             LEVNUM/LEVLEN PARAMETERS ARE IGNORED.'              @H1A
.*    MNOTE 4,'FSTCHAR AND/OR OTHCHAR FOR  CONVERT=HEX  HAVE NO       *
.*             MEANING. FSTCHAR/OTHCHAR PARAMETERS ARE IGNORED.'   @H2A
.*                                                                    *
.*   INFORMATIONAL MNOTES = CONVERT=CHOICE                            *
.*    MNOTE 4,'CONLEN NOT REQUIRED WITH CONVERT=CHOICE. CONLEN        *
.*             PARAMETER SET TO ONE'                               @R4C
.*    MNOTE 4,'MAXLEN PARAMETER IS NOT REQUIRED WITH CONVERT=CHOICE.  *
.*             MAXLEN SET TO EIGHT'                                @H1C
.*    MNOTE 4,'MINLEN PARAMETER IS NOT REQUIRED WITH CONVERT=CHOICE.  *
.*             MINLEN SET TO 1'                                    @H1A
.*    MNOTE 4,'LEVNUM AND/OR LEVLEN FOR CONVERT=CHOICE HAVE NO        *
.*             MEANING. LEVNUM/LEVLEN PARAMETERS ARE IGNORED.'     @H1A
.*    MNOTE 4,'FSTCHAR AND/OR OTHCHAR FOR CONVERT=CHOICE HAVE NO      *
.*             MEANING. FSTCHAR/OTHCHAR PARAMETERS ARE IGNORED.'   @H2A
.*                                                                    *
.*   INFORMATIONAL MNOTES = CONVERT=INTEGER                           *
.*    MNOTE 4,'CHOICE KEYWORDS FOR CONVERT=INTEGER HAVE NO MEANING.   *
.*             CHOICE PARAMETERS ARE IGNORED'                      @R5A
.*    MNOTE 4,'LEVNUM AND/OR LEVLEN FOR CONVERT=INTEGER HAVE NO       *
.*             MEANING. LEVNUM/LEVLEN PARAMETERS ARE IGNORED.'     @H1A
.*    MNOTE 4,'FSTCHAR AND/OR OTHCHAR FOR CONVERT=INTEGER HAVE NO     *
.*             MEANING. FSTCHAR/OTHCHAR PARAMETERS ARE IGNORED.'   @H2A
.*                                                                    *
.*   INFORMATIONAL MNOTES = CONVERT=REFERRAL                          *
.*    MNOTE 4,'CHOICE KEYWORDS FOR CONVERT=REFERRAL HAVE NO MEANING.  *
.*             CHOICE PARAMETERS ARE IGNORED'                      @H2A
.*    MNOTE 4,'MAXLEN AND/OR MINLEN FOR CONVERT=REFERRAL HAVE NO      *
.*             MEANING. MAXLEN/MINLEN PARAMETERS ARE PRESET.'      @H2A
.*    MNOTE 4,'LEVNUM AND/OR LEVLEN FOR CONVERT=REFERRAL HAVE NO      *
.*             MEANING. LEVNUM/LEVLEN PARAMETERS ARE IGNORED.'     @H2A
.*    MNOTE 4,'FSTCHAR AND/OR OTHCHAR FOR CONVERT=REFERRAL HAVE NO    *
.*             MEANING. FSTCHAR/OTHCHAR PARAMETERS ARE IGNORED.'   @H2A
.*                                                                    *
.*   INFORMATIONAL MNOTES = MISCELLANEOUS                             *
.*    MNOTE 4,'HIGH/LOW INVALID WITH CONVERT=&CONVERT.  HIGH/LOW      *
.*             PARAMETER IGNORED'                                     *
.*    MNOTE 4,'CONLEN NOT REQUIRED WITH CONVERT=&CONVERT. CONLEN      *
.*             PARAMETER SET TO MAXLEN KEYWORD PARAMETER.'         @R4A
.*    MNOTE 4,'KEYDFLT NOT REQUIRED WITH CONVERT=&CONVERT'         @R7A
.*                                                                    *
.*   ERROR MNOTES = CONVERT=CHAR                                      *
.*    MNOTE 12,'MAXLEN=&MAXLEN INVALID. MUST BE 1 TO 64 DECIMAL'   @H1C
.*    MNOTE 12,'MINLEN=&MINLEN INVALID. MUST BE 1 TO 64 DECIMAL'   @H1A
.*    MNOTE 12,'LEVNUM=&LEVNUM INVALID. MUST BE 1 TO 31 DECIMAL'   @H1A
.*    MNOTE 12,'LEVLEN=&LEVLEN INVALID. MUST BE 1 TO 64 DECIMAL'   @H1A
.*    MNOTE 12,'FSTCHAR=&FSTCHAR HAS AN INVALID NUMBER OF SUBPARA-    *
.*              METERS. ONLY 1 TO 4 ALLOWED.'                      @H3C
.*    MNOTE 12,'FSTCHAR=&FSTCHAR HAS INVALID SUBPARAMETERS. MUST BE   *
.*              ALL, ALPHABETIC, NUMERIC, NATIONAL, OR SPECIAL.'   @H3C
.*    MNOTE 12,'FSTCHAR=ALL IS NOT ALLOWED WITH ALPHABETIC, NUMERIC,  *
.*              NATIONAL, OR SPECIAL.'                             @H3C
.*    MNOTE 12,'EXPECTED SPECIAL CHARACTERS WERE NOT SPECIFIED FOR    *
.*              FSTCHAR=SPECIAL.'                                  @H3A
.*    MNOTE 12,'FSTSPEC SPECIFIES MORE PARAMETERS THAN THE MAXIMUM    *
.*              OF 16 ALLOWED.                                     @H3A
.*    MNOTE 12,'PARAMETER ''&FSTSPEC(&CTR)'' SPECIFIES MORE THAN      *
.*              THE ONE CHARACTER ALLOWED.'                        @H3A
.*    MNOTE 12,'OTHCHAR=&OTHCHAR HAS AN INVALID NUMBER OF SUBPARA-    *
.*              METERS. ONLY 1 TO 4 ALLOWED.'                      @H3C
.*    MNOTE 12,'OTHCHAR=&OTHCHAR HAS INVALID SUBPARAMETERS. MUST BE   *
.*              ALL, ALPHABETIC, NUMERIC, NATIONAL, OR SPECIAL.'   @H3C
.*    MNOTE 12,'OTHCHAR=ALL IS NOT ALLOWED WITH ALPHABETIC, NUMERIC,  *
.*              NATIONAL, OR SPECIAL.'                             @H3C
.*    MNOTE 12,'EXPECTED SPECIAL CHARACTERS WERE NOT SPECIFIED FOR    *
.*              OTHCHAR=SPECIAL.'                                  @H3A
.*    MNOTE 12,'OTHSPEC SPECIFIES MORE PARAMETERS THAN THE MAXIMUM    *
.*              OF 16 ALLOWED.                                     @H3A
.*    MNOTE 12,'PARAMETER ''&OTHSPEC(&CTR)'' SPECIFIES MORE THAN      *
.*              THE ONE CHARACTER ALLOWED.'                        @H3A
.*                                                                    *
.*   ERROR MNOTES = CONVERT=HEX                                       *
.*    MNOTE 12,'MAXLEN=&MAXLEN INVALID. MUST BE 1 TO 8 DECIMAL'    @H1A
.*    MNOTE 12,'MINLEN=&MINLEN INVALID. MUST BE 1 TO 8 DECIMAL'    @H1A
.*    MNOTE 12,'LOW=&LOW INVALID. MUST BE 0 TO 7FFFFFFF HEX'       @H1A
.*    MNOTE 12,'HIGH=&HIGH INVALID. MUST BE 0 TO 7FFFFFFF HEX'     @H1A
.*    MNOTE 12,'HIGH=&HHGH OR LOW=&HLOW INVALID. HIGH MUST BE GREATER *
.*             THAN OR EQUAL TO LOW VALUE.'                        @H1A
.*                                                                    *
.*   ERROR MNOTES = CONVERT=CHOICE                                    *
.*    MNOTE 12,'&CHOICE# VALUE NOT TWO HEX DIGITS'                    *
.*    MNOTE 12,'TWO SUBPARAMETERS EXPECTED WITH &CHOICE#: &NUM FOUND' *
.*    MNOTE 12,'CONVERT=CHOICE SPECIFIED BUT NO CHOICE OPTIONS        *
.*             SPECIFIED.'                                            *
.*    MNOTE 12,'KEY NOT SPECIFIED. DEFAULT KEY IGNORED'               *
.*    MNOTE 12,'&CHOICE# SPECIFIES INVALID CHARACTERS'             @R6A
.*    MNOTE 12,'&CHOICE# SPECIFICATION EXCEEDS 8 CHARACTERS'       @R6A
.*    MNOTE 12,'KEYDFLT=&KEYDFLT INVALID.  MUST BE TWO HEX DIGITS.'   *
.*                                                                    *
.*   ERROR MNOTES = CONVERT=INTEGER                                   *
.*    MNOTE 12,'MAXLEN=&MAXLEN INVALID. MUST BE 1 TO 10 DECIMAL'   @H1C
.*    MNOTE 12,'MINLEN=&MINLEN INVALID. MUST BE 1 TO 10 DECIMAL'   @H1A
.*    MNOTE 12,'MAXLEN=&MXLTH OR MINLEN=&MNLTH INVALID. MAXLEN MUST   *
.*             BE GREATER THAN OR EQUAL TO MINLEN'                 @H1A
.*    MNOTE 12,'HIGH=&PHGH OR LOW=&PLOW INVALID. HIGH MUST BE GREATER *
.*             THAN OR EQUAL TO LOW VALUE'                            *
.*                                                                    *
.*   ERROR MNOTES = CONVERT=REFERRAL                                  *
.*    MNOTE 12,'CONVERT=REFERRAL FOR  JDPARM MACRO,  BUT NOT JDKEY.   *
.*              JDKEY MUST BE REFERRAL OR JDPARM MUST NOT BE.'     @H2A
.*                                                                    *
.*   ERROR MNOTES = MISCELLANEOUS                                     *
.*    MNOTE 12,'KEY=&KEY INVALID. MUST BE 4 HEX DIGITS.'              *
.*    MNOTE 12,'THE KEY= PARAMETER IS REQUIRED BUT IS NOT SPECIFIED'  *
.*    MNOTE 12,'CONLEN=&CONLEN INVALID. MUST BE 1 TO 4 DECIMAL.'      *
.*    MNOTE 12,'JDPARM MACRO SPECIFIED OUT OF ORDER'                  *
.*    MNOTE 12,'CONVERT=&CONVERT INVALID. CONVERT=CHAR ASSUMED'       *
.*    MNOTE 12,'REQUIRED MAXLEN PARAMETER IS NOT SPECIFIED'        @H1C
.*    MNOTE 12,'REPEAT=&REPEAT INVALID.  MUST BE 0 TO 127 DECIMAL.'   *
.*    MNOTE 12,'JDPARM MACRO SPECIFIED MORE THAN ONCE FOR LIST        *
.*              ITEMS, THE USE OF THE REPEAT KEYWORD IS REQUIRED      *
.*              FOR DUPLICATION OF THE LIST ITEM SPECIFICATIONS.'  @H3A
.*                                                                    *
.*    MNOTE 16,'JDTMAC MACRO MUST BE FIRST MACRO SPECIFIED BUT IS NOT'*
.*    MNOTE 16,'CONVERT=&CONVERT INCONSISTENT WITH  JDKEY REFERRAL.   *
.*              JDPARM MUST BE REFERRAL OR JDKEY MUST NOT BE.'     @H2A
.*                                                                    *
.*   CHANGE ACTIVITY = H0,R1,R2,R3,R4,R5,R6,R7,R8,R9,RA,H1,H2,RB,  @RBA
.*                     H3                                          @H3A
.* $H0= EXTJCL  JBB1328 810315 PDC5: SUPPORT FOR EXTENDED JCL         *
.* $R1= PPP0007 JBB1328 810508 PDC5: REPEAT ERROR CONTINUATION     @R1A
.* $R2= PPP0008 JBB1328 810508 PDC5: TWO MNOTES FOR ONE ERROR      @R2A
.* $R3= PPP0009 JBB1328 810508 PDC5: MISSING EXPECTED MNOTE        @R3A
.* $R4= PPP0014 JBB1328 810508 PDC5: CONLEN= ERROR MNOTE CHANGES   @R4A
.* $R5= PPP0016 JBB1328 810508 PDC5: MISSING EXPECTED MNOTE        @R5A
.* $R6= PPP0017 JBB1328 810508 PDC5: MISSING EXPECTED MNOTE        @R6A
.* $R7= PPP0020 JBB1328 810508 PDC5: KEYDFLT= INCORRECT PROCESSING @R7A
.* $R8= PPP0028 JBB1328 810508 PDC5: MISSING EXPECTED MNOTE        @R8A
.* $R9= PPP0029 JBB1328 810508 PDC5: WRONG MNOTE ISSUED            @R9A
.* $RA= PPP0030 JBB1328 810508 PDC5: UNEXPECTED ASSEMBLER ERROR    @RAA
.* $H1= EXTJCL  JBB1328 811204 PDC5: SUPPORT FOR EXTENDED JCL      @H1A
.* $H2= EXTJCL  JBB1328 820330 PDC5: SUPPORT FOR EXTENDED JCL      @H2A
.* $RB= PPP0101 JBB1328 820521 PDC5: POSSIBLE ALIGNMENT ERROR      @RBA
.* $H3= EXTJCL  JBB1329 820611 PDC5: SUPPORT FOR EXTENDED JCL      @H3A
.*                                                                    *
.**********************************************************************
.* A 000000-999999                                                 @H0A
.* A REPEAT WAS DUPLICATING MNOTES WHEN THE PROCESSING SHOULD STOP @R1A
.* A GETTING TWO MNOTES FOR ONE ERROR ON CHOICE#= PARAMETER        @R2A
.* A NO MNOTE WAS RECEIVED FOR A BLANK SYMBOL ON CHOICE PARAMETER  @R3A
.* A MNOTE ADDED AND ANOTHER ONE CHANGED TO SUPPORT CONLEN= ERROR  @R4A
.* A NO MNOTE RECEIVED WHEN CHOICE KEYWORD SPECIFIED ON CONVERT=CHAR
.*   OR ON CONVERT=INTEGER.                                        @R5A
.* A NO MNOTE RECEIVED WHEN CHOICE SYMBOL IS SPECIFIED INCORRECTLY @R6A
.* A KEYDFLT= PARAMETER WAS NOT BEING IGNORED ON CONVERT=CHAR      @R7A
.* A NO MNOTE FOR KEYDFLT= PARAMETER WHEN NON-HEX DIGITS SPECIFIED @R8A
.* A MNOTE FOR KEY= WAS REALLY A KEYDFLT ERROR. BRANCH FROM AND TO
.*   LABEL WAS MISSPELLED.                                         @R9A
.* A WHEN KEY= KEYWORD PARAMETER IS INCORRECTLY SPECIFIED AND KEYDFLT=
.*   KEYWORD IS NOT SPECIFIED, KEY= GIVES THE CORRECT MNOTE, BUT AN
.*   AN ASSEMBLER ERROR IS ALSO GIVEN BECAUSE KEYDFLT WAS SET TO NULLS
.*   INSTEAD OF ZEROES.                                            @RAA
.* A HEX CONVERSION SUPPORT AND MINLEN= KEYWORD                    @H1A
.* A AUTOMATIC BYTE OFFSET CALCULATIONS AND BLOCK IDENTIFICATION   @H1A
.* D KEYWORD &BYTEOFF DUE TO AUTOMATIC PROCESSING                  @H1A
.* A NAME CONVERSION AND ITS ASSOCIATED KEYWORDS: LEVNUM & LEVLEN  @H1A
.* C LENGTH= KEYWORD TO MAXLEN= KEYWORD TO GO WITH MINLEN= KEYWORD @H1A
.* D NAME CONVERSION                                               @H2A
.* A REFERRAL CONVERSION AND GENERALIZED CONVERSION RULES CHECKING @H2A
.* A KEYWORDS--FSTCHAR= AND OTHCHAR= AS PART OF THE RULES CHECKING @H2A
.*   SUCH AS FOR TYPES-ALPHABETIC, NUMERIC, AND NATIONAL CHARS.    @H2A
.* D FULLWORD ALIGNMENT BOUNDARY OF DS 0F FROM DEFINITION.         @RBA
.* A GLOBAL BITS TO INDICATE THIS PARAMETER IS A LIST ITEM--EITHER @H3A
.*   FOR PARAMETERS (BIT SET IN JDKEY) OR SUBLISTS (SET IN JDSUB). @H3A
.* A SPECIAL CHARACTER CHECKING FOR CONVERT=CHAR.                  @H3A
.***-----------------------------------------------------------***
.***-----------------------------------------------------------***
.***     LOCAL AND GLOBAL VARIABLES USED IN THIS MACRO.        ***
.***-----------------------------------------------------------***
         LCLA  &LVNUM,&LVLEN        CONVERSION VARIABLES           @H1A
         LCLA  &MXLTH,&MNLTH,&CLEN  WORKING VARIABLES FOR MAXLEN,  @H1C
.*                            MINLEN, AND CONVERTED LENGTH OPTION  @H1C
.*---------------------------------------------------------------* @R6A
.*   GLOBALS USED FOR ERROR INDICATORS RETURNED FROM INTERNAL    * @R6A
.*   MACRO JDSCAN.                                               * @R6A
.*   &$ERRBAD IS THE INVALID CHARACTER ERROR BIT.                * @R6A
.*   &$ERRBIG IS THE GREATER THAN 8 CHARACTERS ERROR BIT.        * @R6A
.*---------------------------------------------------------------* @R6A
         GBLB  &$ERRBAD,&$ERRBIG                                   @R6A
.*---------------------------------------------------------------*
.*       LOCAL NUMERIC VARIABLES USED:                           *
.*       DKEY=KEY DKY=KEYDFLT                                    *
.*       PHGH=HIGH PLOW=LOW    FOR INTEGER CONVERSION            *
.*       HHGH=HIGH HLOW=LOW    FOR HEX CONVERSION                * @H1A
.*       THE FLAG BITS ARE: &D0 IS FOR DEFAULT                   *
.*                          &F# ARE FOR CONVERSION INDICATORS    *
.*                          F0=CHOICE; F1=CHAR; F2=INTEGER;      *
.*                          F3=HEX; F4=REFERRAL                  * @H2A
.*                          &S# ARE FOR SUBLIST INDICATORS       *
.*                          S0=SUBLIST DEFINED; S1=FIRST ELEMENT * @H1A
.*---------------------------------------------------------------*
         LCLB  &D0,&F0,&F1,&F2,&F3,&F4,&S0,&S1 FLAG BITS USED      @H1C
         LCLA  &PHGH,&PLOW       VARIABLES FOR HIGH AND LOW-INTEGER
         LCLC  &HHGH,&HLOW       VARIABLES FOR HIGH AND LOW-HEX    @H1A
         LCLC  &DKEY,&DKY        VARIABLES FOR KEY AND KEYDFLT
.*---------------------------------------------------------------* @H2A
.*       LOCAL VARIABLES USED FOR KEYWORDS->FSTCHAR AND OTHCHAR: * @H2A
.*       THE FLAG BITS ARE: C0 & O0 = ALL                        * @H2A
.*          FSTCHAR=C#      C1 & O1 = ALPHABETIC                 * @H2A
.*          OTHCHAR=O#      C2 & O2 = NUMERIC                    * @H2A
.*                          C3 & O3 = NATIONAL                   * @H2A
.*                          C4 & O4 = SPECIAL                    * @H3A
.*       &SUB CAN HOLD A MAXIMUM OF FOUR OF THESE WITH 'ALL'     * @H3C
.*            BEING MUTUALLY EXCLUSIVE.                          * @H3A
.*---------------------------------------------------------------* @H2A
         LCLB  &C0,&C1,&C2,&C3,&C4,&O0,&O1,&O2,&O3,&O4             @H3A
         LCLC  &SUB(4)           SUBLIST TO HOLD THE SELECTIONS    @H3C
.*---------------------------------------------------------------* @H3A
.*       VARIABLES USED WITH SPECIAL CHARACTER PROCESSING.       * @H3A
.*---------------------------------------------------------------* @H3A
         LCLA  &FPAD,&OPAD       KEEPS NUMBER OF PADDING ZEROES    @H3A
         LCLA  &#FSPEC,&#OSPEC   KEEPS COUNT OF PARAMETERS         @H3A
         LCLC  &FALL,&OALL       CONCATENATES THE SPECIAL CHARS    @H3A
.*---------------------------------------------------------------*
.*       LOCAL MISCELLANEOUS VARIABLES USED.                     *
.*---------------------------------------------------------------*
         LCLA  &CTR              VARIABLE COUNTER
         LCLA  &COUNT            USED FOR REPEAT FUNCTION
         LCLB  &REPSW            REPEAT BIT SWITCH FOR REPEAT OPTION
         LCLB  &ERRSW           ERROR SWITCH FOR CHOICE PROCESSING @R2A
         LCLB  &STOP             STOPS THE REPEAT PROCESSING TO    @R1A
.*                               ELIMINATE REDUNDANT MNOTES.       @R1A
.*---------------------------------------------------------------*
.*   CHOICE VARIABLES USED IN MACRO; &CHOICE# = MNOTE IDENTIFIER *
.*   &CH# = THE CHOICE; &VAL# = THE VALUE OF THE CHOICE          *
.*---------------------------------------------------------------*
         LCLA  &NUM             VARIABLE NUMBER HOLDER
         LCLC  &CHOICE#         HOLD THE CURRENT CHOICE BEING WORKED ON
         LCLC  &CH1,&CH2,&CH3,&CH4,&CH5,&CH6,&CH7,&CH8
         LCLC  &VAL1,&VAL2,&VAL3,&VAL4,&VAL5,&VAL6,&VAL7,&VAL8
.*---------------------------------------------------------------* @H1A
.*   GLOBAL DEFINITIONS                                          * @H1A
.*   &BYTEOFF AND &BLKID ARE USED BY JDVERB MACRO.               * @H1A
.*   &R1 BIT IS SET BY THE JDKEY MACRO--                         * @H2A
.*       INDICATES REFERRAL PROCESSING.                          * @H2A
.*   &L2 BIT IS SET BY THE JDKEY MACRO--                         * @H3A