         MACRO
&NAME    JFRECORE &ADDR=
.*       GENERATES A CALL TO THE I/O INTERFACE MODULES TO FREE
.*       A BLOCK OF DOUBLE WORD STORRAGE.
         AIF   (K'&ADDR EQ 0).ERR1
&NAME    JINST L,R10,&ADDR
         L     R12,JMLC                 LOAD BASE
         BAL   R9,JFRECORE(,R12)        GO TO JFRECORE
         MEXIT
.ERR1    MNOTE 8,'PARAMETER ERROR.'
         MEND
