         MACRO
&NAME    JGEN  &NM,&TYPE,&DATA,&LEN
         LCLA  &END,&I
         LCLC  &C(2),&L
.*       GENERATES AN ORG TO SPECIFIED ADDRESS
.*       AND A DC OF SPECIFIED TYPE AND VALUE.
         ORG   START+&NM-JCOMMON
&C(1)    SETC  '('
&C(2)    SETC  ')'
         AIF   ('&TYPE' EQ 'A' OR '&TYPE' EQ 'Q' OR '&TYPE' EQ 'V' OR  X
               '&TYPE' EQ 'S' OR '&TYPE' EQ 'Y').NXA
&C(1)    SETC  ''''
&C(2)    SETC  ''''
.NXA     AIF   (K'&LEN EQ 0).NXB
&L       SETC  'L'.'&LEN'
.NXB     AIF   (K'&NAME EQ 0).NXC
&NAME    DS    0&TYPE&L
.NXC     ANOP
&I       SETA  1
&END     SETA  N'&DATA
.NXD     DC    &TYPE&L&C(1)&DATA(&I)&C(2)
&I       SETA  &I+1
         AIF   (&I LE &END).NXD
.NXE     MEND
