         MACRO
&NAME    JGETCORE &MINDBL=,&MAXDBL=,&DBL=
         LCLA  &AA,&BB
         LCLB  &A,&B
.*       GENERATES A CALL TO THE I/O INTERFACE MODULES TO GET
.*       A VARIABLE NUMBER OF DOUBLE WORD STORAGE.
&A       SETB  (K'&MINDBL EQ 0 AND K'&MAXDBL EQ 0)
&B       SETB  (K'&DBL EQ 0)
&AA      SETA  &A
&BB      SETA  &B
         AIF   (&AA EQ &BB).ERR1
         AIF   (K'&DBL EQ 0).NXA
&NAME    JINST LA,R10,&DBL
         LR    R11,R10
         AGO   .NXB
.NXA     ANOP
&NAME    JINST LA,R10,&MINDBL
         JINST LA,R11,&MAXDBL
.NXB     L     R12,JMLC                 LOAD BASE
         BAL   R9,JGETCORE(,R12)        GO TO JGETCORE
         MEXIT
.ERR1    MNOTE 8,'PARAMETER ERROR.'
         MEND
