         MACRO
&NAME    JGETL &FILE=
.*       GENERATES A CALL TO TEH WORKFILE I/O MODULE TO GET THE ADDRESS
.*       OF THE NEXT LOGICAL RECORD.
         AIF   (K'&FILE EQ 0).ERR1
&NAME    JINST LA,R10,&FILE,FILE
         L     R12,JMLC                 LOAD BASE
         BAL   R9,JGETL(,R12)           GO TO JGETL
         MEXIT
.ERR1    MNOTE 8,'PARAMETER ERROR.'
         MEND
