         MACRO
&N       JPATCH &MOD,&MODLEN,&AREA,&K1=21,&K2=20
         GBLA  &PI
         GBLC  &COMPNM,&ASMID
         LCLA  &A
         LCLC  &NAME,&L1,&L3,&L4,&L5
.P2      PUSH  PRINT
&NAME    SETC  '&COMPNM&MOD'
         PRINT GEN,DATA
.*THE PATCH AREA IS INITIALIZED TO 5% OF THE ORIGINAL CSECT.  BY
.*EVOKING THE "PATCH" MACRO, SUBSEQUENT ADDITIONS TO THE MODULE WILL
.*"SHRINK" THE ORIGINAL 5%-PATCH AREA VIA THE DYNAMIC ASSIGNMENT OF A
.*NEW LESS-THAN-5%-PATCH AREA.  AT LEAST A 5%-PATCH AREA WILL BE
.*DYNAMICALLY MAINTAINED FOR DELETIONS TO THE MODULE.
&NAME    CSECT
         LTORG
         PRINT GEN,NODATA
         AIF   (T'&AREA EQ 'O').NOAREA
&A       SETA  &AREA
.NOAREA  AIF   (&PI NE 0).DS2
PATCHDC  DC    C'&NAME &SYSTIME &SYSDATE'
ABSOLEN  EQU   X'&MODLEN'-&A+L'PATCHDC  CALCULATE ACTUAL MODULE LENGTH
PTCHLEN  EQU   &NAME+ABSOLEN*&K1/&K2-*        LENGTH OF PATCH AREA
PATCH    DC    ((PTCHLEN+1)/PTCHLEN*PTCHLEN)C' '    DYNAMIC PATCH AREA
         AGO   .EXIT
.DS2     ANOP
&L4      SETC  'PATCHDC&PI'
&L5      SETC  'L'''.'PATCHDC&PI'
&L4      DC    C'&NAME &SYSTIME &SYSDATE'
&L1      SETC  'ABSOLEN&PI'
&L3      SETC  'PTCHLEN&PI'
&L1      EQU  X'&MODLEN'-&A+&L5         CALCULATE ACTUAL MODULE LENGTH
&L3      EQU   &NAME+&L1*&K1/&K2-*            LENGTH OF PATCH AREA
PATCH&PI DC    ((&L3+1)/&L3*&L3)C' '                DYNAMIC PATCH AREA
.EXIT    POP   PRINT
&PI      SETA  &PI+1                    FOR UNIQUE LABELS
         MEND
