         MACRO
&NAME    JPRINT
.*       GENERATES A CALL TO THE OUTPUT I/O MODULE TO PRINT A LINE
.*       ON SYSPRINT AND GET THE ADDRESS OF THE NEXT BUFFER BACK.
&NAME    L     R12,JOUTMLC              LOAD BASE
         BAL   R9,JPRINT(,R12)          GO TO JPRINT
         MEND
