         MACRO
&NAME    JRELSE &FILE=
.*       GENERATES A CALL TO THE WORKFILE I/O MODULE TO RELEASE
.*       AN INPUT BUFFER. THE NEXT JGETL MACRO INTRUCTION RETRIEVES
.*       THE FIRST RECORD IN THE NEXT INPUT BUFFER.
         AIF   (K'&FILE EQ 0).ERR1
&NAME    JINST LA,R10,&FILE,FILE
         L     R12,JMLC                 LOAD BASE
         BAL   R9,JRELSE(,R12)          GO TO JRELSE
         MEXIT
.ERR1    MNOTE 8,'PARAMETER ERROR.'
         MEND
