         MACRO
&NAME    PRPLY &SIZE=
&NAME    WRTRP SIZE=&SIZE,DISP=18
         MEND
