         MACRO
&NAME    PWTO  &MT=,&MSG=,&REG=
&NAME    CMWTO MT=&MT,MSG=&MSG,REG=&REG,DISP=6
         MEND
