         MACRO
&NAME    SETFRRI &OPT,                                                 X
               &CLEAR=,                                                X
               &EUT=,                                                  X
               &FRRAD=,                                                X
               &INLINE=NO,                                             X
               &MODE=,                                                 X
               &PARMAD=,                                               X
               &RELATED=,                                              X
               &WRKREGS=,                                              X
               &OPT2
.* A 000000-999999                                             @G38LP1S
.*
.**********************************************************************
.*                                                                    *
.* MACRO NAME = SETFRRI                                               *
.*                                                                    *
.* DESCRIPTIVE NAME = SET FUNCTIONAL RECOVERY ROUTINE INSTRUCTION     *
.*                                                                    *
.*    COPYRIGHT =                                                     *
.*        5740-XYN COPYRIGHT IBM CORP. 1980                           *
.*        LICENSED MATERIAL-PROGRAM, PROPERTY OF IBM,                 *
.*        REFER TO COPYRIGHT INSTRUCTIONS FORM                        *
.*        NUMBER G120-2083.                                           *
.*                                                                    *
.* STATUS = OS/VS2 JBB1226                                            *
.*                                                                    *
.* USAGE =                                                            *
.*                                                                    *
.*        THE SETFRRI MACRO EXPANSION GENERATES A FORM OF THE         *
.*        SETFRR MACRO WHICH WILL UTILIZE THE ADD FRR INSTRUCTION     *
.*                                                                    *
.* CHANGE-ACTIVITY                                                    *
.*        NONE                                                        *
.*                                                                    *
.**********************************************************************
&NAME    SETFRR &OPT,                                                  X
               ASSIST=YES,                                             X
               CLEAR=&CLEAR,                                           X
               EUT=&EUT,                                               X
               FRRAD=&FRRAD,                                           X
               INLINE=&INLINE,                                         X
               MODE=&MODE,                                             X
               PARMAD=&PARMAD,                                         X
               RELATED=&RELATED,                                       X
               WRKREGS=&WRKREGS,                                       X
               &OPT2
         MEND
