         MACRO
&NAME    VSCRATCH  &DSPCT=
         AIF       ('&DSPCT' EQ '').ERROR1
         AIF       ('&DSPCT' NE '&DSPCT(1)').REG
         LA        1,&DSPCT            LOAD DSPCT HDR ADDR IN REG 1
         AGO       .CONTD
.REG     AIF       ('&DSPCT(1)' EQ '1').CONTD
         LR        1,&DSPCT(1)         LOAD DSPCT HDR ADDR IN REG 1
.CONTD   L         15,16               LOAD CVT ADDR IN REG 15
         L         15,CVTPVBP-CVTTCBP(,15)  LOAD VBP MOD ADDR IN R15
         L         15,16(,15)          LOAD IDAVBPS1 MOD ADDR IN R15
         BALR      14,15               BRANCH & LINK TO IDAVBPS1
         MEXIT
.ERROR1  MNOTE     12,'OPERAND MISSING'
         MEND
