         MACRO
&NAME    WICLOSE &VDSCB=
&NAME    DS    0H                       *
         AIF   ('&VDSCB' NE '&VDSCB(1)').REG1
         AIF   ('&VDSCB' NE '').OK1
         MNOTE 12,'NO VDSCB SUPPLIED'
         MEXIT
.OK1     ANOP
         LA    1,&VDSCB                 VDSCB POINTER
         AGO   .COM1
.REG1    ANOP
         AIF   ('&VDSCB(1)' EQ '1').COM1
         LR    1,&VDSCB(1)              VDSCB POINTER
.COM1    ANOP
         L     15,X'10'                 CVT ADDRESSABILITY
         L     15,CVTPWI-CVTTCBP(,15)   WI BASE MODULE
         BAL   14,4(,15)                GO TO WI CLOSE ROUTINE
         MEND
