         MACRO
&NAME    WIEXCP
&NAME    L     15,X'10'                 CVT ADDRESSABILITY
         L     15,CVTPWI-CVTTCBP(,15)   WI BASE MODULE
         BALR  14,15                    GO TO WIEXCP ROUTINE
         MEND
