         MACRO
&NAME    IEACVTPC  &T,&SHELM,&MIDELM,&SECT,&SMF,&TSO,&TOD         20071
*******************************************************************
*  THIS MACRO DEFINES RESIDENT CORE FOR ALL DYNAMIC INFORMATION    *
*  PRETAINING TO THE TIMER ROUTINES.  THE SIGNIFICANCE OF THE      *
*  INPUT PARAMETERS IS AS FOLLOWS-   &T- TIME(T) OR INTERVAL(I)    *
*  TIMER.  (I) IS THE DEFAULT VALUE.   &SHELM,&MIDELM-  VALUES     *
*  FOR THE 6 HR PSEUDO CLOCK AND MIDNIGHT SUPVR ELEMENTS.  THE     *
*  VALUES DIFFER FOR MVT AND MFT II,PCP.  MFT II,PCP IS THE DE-    *
*  FAULT VALUE  & SECT-  DUMMY OR CONTROL SECTION.  THE DUMMY      *
*  SECTION IS THE DEFAULT VALUE.  THUS THE DSECT CALL IS SIM-      *
*  PLY IEACVTPC.                                                   *
*  &TOD SET TO 1 INDICATES A TIME OF DAY EXPANSION IS REQUIRED    20071
*******************************************************************
* A24887,M0756
         AIF   ('&NAME' EQ '').HERE
         AIF   ('&SECT' EQ 'C').TT
&NAME    DSECT
         AGO   .EE
.TT      ANOP
&NAME    CSECT
         AGO   .BEGIN
.HERE    ANOP                                                      REFR
         AIF   ('&SECT' EQ 'C').SS
TPC      DSECT
         AGO   .EE
.SS      ANOP
TPC      CSECT
.BEGIN   ANOP                                                      REFR
         ENTRY IEATPC
         ENTRY IEATSELM                                           20021
.EE      ANOP
         DS    0F                                                  REFR
IEATPC   EQU   *
SHPC     DC    X'31704000'         .6 HR PSEUDO CLOCK            A24887
TSS6     EQU   SHPC                                                REFR
T4PC     DC    F'0'          .24HR PSEUDO CLOCK                    REFR
TQPTROF4 EQU   *                                                   REFR
LTPC     DC    F'0'          .LOCAL TIME PSEUDO CLOCK              REFR
         AIF   ('&T' NE 'T').INTTIME
         DC    X'FF'                                               REFR
         AIF   ('&TOD' NE '1').NOTOD3                             20071
         DC    X'000000'                                          20071
.*    IN SYSTEMS WITH TIMER=TIME THE MNIGHT FIELD MUST BE LOCATED 20071
.*    AT X'10' INTO IEACVTPC                                      20071
MNIGHT   DC    F'0'                                               20071
CLOCK    DC    D'0'                    AREA USED TO STORE CLOCK   20071
TSDBLDAT DC    D'0'                    DATE WORK AREA             20071
.NOTOD3  ANOP                                                     20071
IEATSELM DC    A(0) .                  DUMMY ADCON FOR TSO    GF A46211
         AGO   .ENDALL                                            20071
.INTTIME ANOP                                                      REFR
TQPTR    DC    A(SHELM)      .RUDIMENTARY TIMER QUEUE              REFR
ATQPTR   DC    A(TQPTR)                                            REFR
         DC    F'0'                                                REFR
         AIF   ('&SHELM' EQ '02').MVTSHEM
SHELM    DC    X'04000000'   .6HR SUPERVISOR ELM                   REFR
         AGO   .DEFINEQ                                            REFR
.MVTSHEM ANOP                                                      REFR
SHELM    DC    X'02000000'   .6HR SUPERVISOR ELM                   REFR
.DEFINEQ DC    A(MIDELM)                                           REFR
         DC    A(TQPTR-4)                                          REFR
         DC    X'31704000'                                       A24887
         AIF   ('&MIDELM' EQ '46').MVTMID
MIDELM   DC    X'45000000'   .MIDNIOHT SUPR ELM                    REFR
         AGO   .ARDMVT                                             REFR
.MVTMID  ANOP
MIDELM   DC    X'46000000'    .MIDNIGHT SUPR ELM
.ARDMVT  ANOP                                                     20071
         AIF   ('&TOD' NE '1').NOTOD1                             20071
         ORG   *-3                                                20071
         DC    AL3(EXTEN-32)                                      20071
.NOTOD1  ANOP                                                     20071
         DC    A(ENDELM-8)                                         REFR
         DC    A(SHELM)                                            REFR
         DC    X'C5C10000'                                       A24887
ENDELM   DC    A(MIDELM)     .ENDELM                               REFR
         DC    F'-1'                                               REFR
PTIMER   DS    F
PTIMER2  DS    F
SAVER10  DS    F
TTIMSAV  DS    F
TOPQ     DC    A(TQPTR-4)
TSDBLDAT DC    D'0'          .WORKSPACE                            REFR
         AIF   ('&SMF' EQ '1').MVTTEN                               SMF
         AGO   .ENDSMF                                           A31240
.MVTTEN  ANOP                                                       SMF
         AIF   ('&SHELM' EQ '02').MVTTQE                          19018
TENMELM  DC    X'84000000'    .10 MIN. SUPV. ELEMENT              M3039
         AGO   .MFTTEN                                            M3039
.MVTTQE  ANOP                                                     M3039
TENMELM  DC    X'82000000'    .10 MIN. SUPV. ELEMENT              M3039
.MFTTEN  ANOP                                                     M3039
         DC    A(0)                                               M3039
         DC    A(0)                                               M3039
         DC    X'015F9000'                                       A24887
         AIF   ('&SHELM' EQ '02').ENDSMF                          M3039
         AIF   ('&SECT' NE 'C').WW                                19018
         EXTRN IEATLEXT                                           19018
         ENTRY TLEXTIRB                                           19018
.WW      ANOP                                                     19018
* FOLLOWING IS THE IRB UNDER WHICH THE ASYNCHRONOUS TIME LIMIT    19018
* EXTENSION ROUTINE RUNS                                          19018
TLEXTIRB DC    D'0'                                               19018
         DC    X'000C'                                            19018
         DC    X'400C'                                            19018
         AIF   ('&SECT' NE 'C').XX                                19018
         DC    A(IEATLEXT)                                        19018
         AGO   .YY                                                19018
.XX      ANOP                                                     19018
         DC    A(0)                     .ADDR OF IEATLEXT         19018
.YY      ANOP                                                     19018
         DC    10D'0'                                             19018
.ENDSMF  ANOP                                                     M3039
         AIF   ('&TSO' NE '1').TSO2                               20021
RTNSAVE  DS    F                                                  20021
IEATSELM DC    X'82000000'    TQE FOR TIME-SHARING DRIVER         20021
         DC    A(0)                                               20021
         DC    A(0)                                               20021
         DC    X'00000000'                                        20021
         AGO   .NOTTSO                                            M0756
.TSO2    ANOP
IEATSELM DC  A(0)                 DUMMY ADCON FOR SCVT            M0756
.NOTTSO  ANOP                                                     M0756
         AIF   ('&TOD' NE '1').NOTOD2                             20071
EXTEN    EQU   *                                                  20071
MNIGHT   DC    F'0'                                               20071
MIDSYNC  DC    F'0'                    BIT 0 IS SYNC BIT FOR      20071
*                                      THE MIDNIGHT TQE           20071
         AIF   ('&SECT' NE 'C').TTOD                              20071
         ENTRY IEACLOCK                                           20071
.TTOD    ANOP                                                     20071
IEACLOCK DC    D'0'                    AREA USED TO STORE CLOCK   20071
.NOTOD2  ANOP                                                     20071
.ENDALL  ANOP                                                     20071
TSLIHSAV DS    16F              .REG SAVE AREA FOR TIMER SLIH    A31240
TQTDSAV  DS    15F .               REGISTER SAVE AREA        BB   M1701
SAVESIX  DS    F .                 SAVEAREA FOR REG. SIX     BB   M1701
POSTZERO DC    F'0' .              SAVEAREA FOR REG. ZERO    BB   M1701
POSTSA   EQU   POSTZERO .          SAVEAREA FOR POST R10-MFT  GF A50267
POSTTWO  DC    F'0' .              SAVEAREA FOR REG. TWO     BB   M1701
POSTBC   DC    2F'0' .   SAVEAREA FOR REGS. 11,12            BB   M1701
REGSAVE1 DC    3F'0' . SAVE AREA BEFORE GOING TO POST        BB   M1703
         AIF   ('&SMF' NE '1').NOTSMFE                       BB   M1703
REGSAV   DC    4F'0' .   SAVEAREA FOR SMF                    BB   M1703
.NOTSMFE ANOP                                                BB   M1703
         AIF   ('&TSO' NE '1').NOTTSOE                       BB   M1703
REGSAVE2 DS    4F . SAVEAREA BEFORE GOING TO TSEVENT         BB   M1703
.NOTTSOE ANOP                                                BB   M1703
         MEND                                                      REFR
