         MACRO
&NAME    IEAQNU &TIMER,&MOD,&SER,&SVHI,&SVLO,&TRACER,&DSIM,&TSTRN, MTS0C
               &TIMESL,&M65MP,&SMF,&EMU,&RERP,&DDRSYS,&TSO,       20021C
               &CHANLOG                                           19E03
.*023630-023750,043170-043180,061638-061650,061793-061797,        21014
.*062370-062380,067959-067960,068295-068301,088370-088380,        21014
.*023630-023750,043170-043180,061638-0616500,061793-061797,       21014
.*248700-248900,265250-265350                                     21014
.*0200,000350-000520                                               SMF
.*0200,174000-180200                                               I251
.*002900,003020-003060                                            M4970
.*129440,130400                                                  A40746
.*066272,066314                                                   M0116
.*065800                                                          M0132
.*179300                                                          M1174
.*085300-085450,166153-166156                                     M0772
.*099650                                                         A36617
.*165306-165336                                                   21472
.*155300                                                          21472
.*039866-039867,081800-081920,082400                              M0581
.*081716-081728                                                  A52223
.*050400                                                         A46343
.*081660                                                         A53993
.*062397                                                         A53361
.*062392                                                          M4917
.*177900-178800,180800                                           A55639
         LCLC  &TAG
         LCLB  &MAINLNE,&JSTIME
         LCLA  &HILMT
         LCLA  &LOLMT
         LCLB  &QNOTMP,&QM65MP
&QM65MP  SETB  ('&M65MP' EQ '1'  OR  '&M65MP' EQ 'M65MP')
&QNOTMP  SETB  (NOT &QM65MP)
&HILMT   SETA  &SVHI*4
&LOLMT   SETA  &SVLO*4
         TITLE '             OPTION 4 NUCLEUS'
IEAQNU00 START 0
         SPACE 2
         TITLE '             COMMUNICATIONS VECTOR TABLE'
*...COMMUNICATION VECTOR TABLE- C.V.T...
CVTSECT  DSECT
         CVT
         AIF   (&TIMESL EQ 0).NOTS02                              M4970
*              TIME SLICE CONTROL ELEMENT                          MTS0
         IHBTSCE                                                   MTS0
NEXTTSCE EQU   16                                                  MTS0
.NOTS02  ANOP                                                      MTS0
         AIF   ('&TSO' NE '1').TSO                                20021
         IKJTSCVT
.TSO     ANOP                                                     20021
         TITLE '             LOW CORE LOCATIONS'
         IEAQFX &MOD,&SER,&M65MP,&CHANLOG                         19E03
IEAQNU00 CSECT
         TITLE '             MODULE EQUATES'
* MODULE USING STATEMENTS.
         USING IEAQFX00,0                                          0539
         SPACE 2
*   GENERAL NAMES FOR REGISTERS, COUNTS, BCR MASKS, ETC.
         SPACE 1
C0       EQU   0                       .0
C1       EQU   1                       .1
C2       EQU   2                       .2
C3       EQU   3                       .3
C4       EQU   4                       .4
C5       EQU   5                       .5
C6       EQU   6                       .6
C7       EQU   7                       .7
C8       EQU   8                       .8
C9       EQU   9                       .9
CA       EQU   10                      .10
CB       EQU   11                      .11
CC       EQU   12                      .12
CD       EQU   13                      .13
CE       EQU   14                      .14
CF       EQU   15                      .15
C20      EQU   20                      .20
C48      EQU   48                      .48
C56      EQU   56                      .56
C60      EQU   60                      .60
C64      EQU   64                       .64
C240     EQU   240                     .X'F0'
C255     EQU   255                     .X'FF'
         SPACE 2
*...TASK CONTROL BLOCK- T.C.B...
         SPACE
TCBFRS0  EQU   0             .FLOATING POINT REG 0.
TCBFRS2  EQU   8             .FLOATING POINT REG 2.
TCBFRS4  EQU   16            .FLOATING POINT REG 4.
TCBFRS6  EQU   24            .FLOATING POINT REG 6.
TCBRBP   EQU   0             .ADDRESS OF CURRENT RB.
TCBPIE   EQU   4             .ADDRESS OF P.I.E.
TCBTRN   EQU   20            .TESTRAN FLD-(HI.BYTE USED BY 94 EMUL)EM94
TCBPKF   EQU   28            .PROTECT KEY FOR TASK.
TCBFLGS  EQU   29            .TCB FLAG BYTES.
TCBWAIT  EQU   32            .NON-DISPATCHABLE BITS.
TCBDSP   EQU   35            .DISPATCHING PRIORITY.
TCBGRS   EQU   48            .REG SAVE AREA.
TCBTCB   EQU   116           .TCB LINK FIELD.
TCBTME   EQU   120           .ADDR OF TIMER ELEMENT.
TCBJSTCB EQU   124           .JOB STEP TCB.
TCBNTC   EQU   128                     .SISTER TASK.              20021
TCBOTC   EQU   132           .ORIGIN TCB.
TCBLTC   EQU   136                     .LOWER THAN CURRENT.        MTS0
TCBTSFLG EQU   148                                                20021
TCBATT   EQU   X'20'         .ATTENTION EXITS SHOULD NOT BE SCH.  20021
         AIF   (&SMF NE 1).NSMFEXA                                  SMF
TCBTCT   EQU   164           .TCT ADDRESS                           SMF
.NSMFEXA ANOP                                                       SMF
         SPACE 2
*...TCB FLAGS...
         SPACE
         AIF   (&TIMESL EQ 0).NOTS15                               MTS0
TCBFTS   EQU   X'01'         .TEST FOR T/S TASK                    MTS0
*                                       TASK.                      MTS0
.NOTS15  ANOP                                                      MTS0
TCBFSIRB EQU   X'20'         .TCB SIRB MASK.
TCBFX    EQU   X'01'         .TCB IRB SUPPRESSION MASK.
TCBFRO   EQU   X'10'         .TCB ROLLOUT MASK.
TCBFCD1  EQU   X'02'         .TCB NO CORE MASK.
TCBFSMC  EQU   X'10'         .SYS MUST COMPLETE FLAG.
TCBFJMC  EQU   X'08'         .STEP MUST COMPLETE FLAG.
         SPACE 3
*...CDE DISPLACEMENTS...                                          19017
         SPACE
CDENEXT  EQU   0                   .CHAIN PTR-NEXT CDE.           19017
CDENAM2  EQU   12                  .MODULE NAME-LAST 4 CHAR.      19017
CDEEPNT  EQU   17                  .MODULE ENTRY POINT ADDR.      19017
         SPACE 3
*...REQUEST BLOCK DISPLACEMENTS...
         SPACE
RBEXRTNM EQU   0             .ERROR RTN NAME
RBSVADDR EQU   0             .ADDR OF SAVE AREA.
RBNAME   EQU   0             .RB NAME.
RBSIZE   EQU   8             .RB SIZE FIELD (DOUBLE WORDS).
RBSTAB   EQU   10            .STATUS ATTRIBUTE BITS.
RBSTAB1  EQU   11             .2ND BYTE-STATUS ATTRIBUTE BITS.    20021
RBATTN   EQU   X'20'         .INDICATES ATTENTION EXIT ROUTINE.   20021
RBEP     EQU   12            .ENTRY POINT OF ASYNCH. RTNS.
RBOPSW   EQU   16            .OLD PSW SAVED AT INTERRUPT.
RBIQUE   EQU   24            .QUEUE FIELD FOR IQE'S AND RQE'S.
RBWCF    EQU   28            .WAIT COUNT
RBLINK   EQU   28            .RB LINK FIELD.
RBGRSAVE EQU   32            .REG SAVE AREA.
         SPACE 2
*...RB FLAGS...
         SPACE
RBFACTV  EQU   X'40'         .RB ACTIVE MASK.
         SPACE 3
*...PIE DISPLACEMENTS...
         SPACE
PIEPICA  EQU   0                  .PICA ADDR IN PIE.
PIEPSW   EQU   4                  .PSW IN PIE.
PIEREG1  EQU   24                  .REGISTER 1 IN PIE SAVE AREA    9570
         SPACE 3
*...TIMER QUEUE ELEMENT DISPLACEMENTS...
         SPACE
TQEFLGS  EQU   0                  .TQE FLAG BYTE.
TQEVAL   EQU   12                       .TQE LENGTH FIELD.         MTS0
TQESAV   EQU   20                           .JST TIMER SAVE AREA.  MTS0
         SPACE 2
*...TIMER QUEUE ELEMTNT FLAG BITS (TQEFLGS)...
TQEOFFQ  EQU   X'80'                   .1 IF TQE IS OFF-QUEUE.
         SPACE 2
* IQE EQUATES
IQELNK   EQU   0                       .4 BYTE LINK FIELD.
IQEPARAM EQU   4                       .4 BYTE PARAMETER.
IQEIRB   EQU   8                       .4 BYTE IRB ADDR.
IQETCB   EQU   12                      .4 BYTE TCB ADDR.
         SPACE
* RQE EQUATES
RQELNK   EQU   0                       .2 BYTE LINK FIELD.
RQEUCB   EQU   2                       .2 BYTE UCB ADDR.
RQEDEB   EQU   8                       .4 BYTE DEB ADDR.
RQETCB   EQU   12                      .4 BYTE TCB ADDR.
         SPACE
* DEB EQUATES
DEBTCBAD EQU   0                       .TCB ADDR IN DEB.           045
DEBIRB   EQU   8                       .IRB ADDR IN DEB.
         SPACE
* UCB EQUATES
UCBTAB   EQU   8                       .ERROR CODE.
         AIF   (&SMF NE 1).NSMFEXC                                  SMF
         SPACE 3                                                    SMF
*...TIMING CONTROL TABLE DISPLACEMENTS- TCT...                      SMF
         SPACE 1                                                    SMF
TCTUCBP  EQU   0             .DISPLACEMENT TO UCB ADDRESS           SMF
TCTDCBTD EQU   0             .DISP TO DD ENTRY DISPLACEMENT         SMF
TCTSCTR  EQU   2             .DISPLACEMENT TO NUMBER OF UCB'S       SMF
TCTIOTSD EQU   2             .DISPLACEMENT TO SLOT                  SMF
TCTSW    EQU   3             .TCT OPTION SWITCHES                   SMF
TCTDCTR  EQU   4             .DISPLACEMENT TO EXCP COUNTER          SMF
TCTCOMIO EQU   8             .COMMON AREA FOR I/O TABLE             SMF
TCTIOTBL EQU   12            .I/O TABLE ADDRESS                     SMF
         SPACE 2                                                    SMF
*...TCT FLAGS...                                                    SMF
         SPACE 2                                                    SMF
NOCOUNT  EQU   X'40'         .EXCP COUNT/NON-COUNT INDICATOR        SMF
CSVRB    EQU   X'C0'         .SVRB TEST MASK                        SMF
         SPACE 3                                                    SMF
*...DCB DISPLACEMENTS...                                            SMF
         SPACE 1                                                    SMF
DCBTIOT  EQU   40            .DD ENTRY OFFSET                       SMF
DCBOFLGS EQU   48            .OPEN/CLOSE FLAGS                      SMF
         SPACE 2                                                    SMF
*...DCB FLAGS...                                                    SMF
         SPACE 1                                                    SMF
OB       EQU   X'11'               .DCB OPENED/BUSY FLAGS           SMF
.NSMFEXC ANOP                                                       SMF
         TITLE '             OPTION 4 NUCLEUS REGISTERS'
         SPACE
* EXTERNAL FLIH.
XXRET    EQU   2
XXBASE   EQU   10
*              14            .EX FLIH BASE REG.
XXTCB    EQU   15
XXRB     EQU   15
        AIF   (&SMF NE 1).NOSMF1                                   SMF
EXFLRET  EQU   11             .LINK REGISTER                      M3335
.NOSMF1  ANOP                                                      SMF
         SPACE 2
* I/O FLIH
XIOSBASE EQU   5
XIOS     EQU   6
XBS      EQU   10
XA       EQU   14
XB       EQU   15            .MUST BE XA+1
XIOTCB   EQU   14
XIORB    EQU   13
        AIF   (&SMF NE 1).NOSMF11                                  SMF
IOFLRET  EQU   11             .LINK REGISTER                      M3335
         SPACE 2                                                    SMF
* SMF SYS WAIT TIME COLLECTION                                      SMF
SYSWBASE EQU   10             .BASE REGISTER                        SMF
CURRENT  EQU   4              .'CURRENT' TCB                        SMF
SYSWTCB  EQU   5              .ADDR SYS WAIT TCB                    SMF
INTIMVAL EQU   6              .VALUE IN TIMER                       SMF
TIMESAVE EQU   7              .SAVE FIELD                           SMF
TIMERACC EQU   8              .ACC SYS WAIT TIME FIELD              SMF
FLIHRET  EQU   11             .RETURN REGISTER                    M3335
INTTIME  EQU   80             .TIMER LOCATION                       SMF
.NOSMF11 ANOP                                                      SMF
         SPACE 2
* PI FLIH
XNPIPIE  EQU   1
XNPI1    EQU   10
*              11            .BASE REG.
* CC     EQU   12                      .REG 12
* CD     EQU   13                      .REG 13
XNPIX    EQU   14
         SPACE 2
* MONITOR CALL INTERFACE.                                         21014
IEACVT   EQU   3              .CVT ADDR REG.                      21014
IEARE    EQU   14             .RETURN REG.                        21014
IEARF    EQU   15             .LINK REG.                          21014
         SPACE 2
* STAGE 2 OF EXIT EFFECTOR.
X2QE     EQU   1             .QE ADDR. REG.
X2WK     EQU   10            .WORK REG.
X2BASE   EQU   11            .BASE REG.
*              14            .RETURN REG.
         SPACE 2
* TASK SWITCH
XPTCB    EQU   10            .INPUT TCB.
XN       EQU   11            .WORK REG.
*              12            .BASE REG.
XRET     EQU   14            .RETURN REG.
         SPACE 2
* DISPATCHER
XDSTQE   EQU   1             .TQE ADDR.
XDSLNK   EQU   2
XBR      EQU   2             .JST- LINKAGE REG.
X2       EQU   2
        AIF   (&SMF NE 1).NOSMF8                                   SMF
         AIF   (&QNOTMP).NTMP02                                   M4774
TIMERVAL EQU   11             .VALUE IN INTERVAL TIMER            19018
         AGO   .NOSMF8                                            M4774
.NTMP02  ANOP                                                     M4774
TIMERVAL EQU   10             .VALUE IN INTERVAL TIMER            M4774
.NOSMF8  ANOP                                                      SMF
         AIF   (&TIMESL EQ 0).NOTS01                               MTS0
TSREGSAV EQU   0                                                   MTS0
TSTQEREG EQU   6                        TQE ADDR REGISTER          MTS0
TSTASK   EQU   10                                                  MTS0
TSREG    EQU   7                                                   MTS0
.NOTS01  ANOP                                                      MTS0
XSEARCH  EQU   8             .JST- SEARCH START.
XTQESAVE EQU   9                       .SAVE ADDRESS OF TQE.       MTS0
XDSNEW   EQU   10            .'NEW' REG.
XDSOLD   EQU   XDSNEW+1      .'OLD' REG.
XDSRB    EQU   12
R15      EQU   15            EP TO TIMER ENQ/DEQ RTN
XNDBITS  EQU   12            .TEST FOR NON-DISPATCHABLE BITS.
XSBR     EQU   12            .JST- LINKAGE REG.
XJSTCB   EQU   13            .JST
XDSWKTCB EQU   13
XDSFP    EQU   13                 FLOATING POINT REGISTER DISP.
         AIF   ('&EMU' NE 'EMUY').NOEMEQU                          EM94
EMBIT    EQU   X'10' .        MASK TO TEST EMULATOR TCB.BIT        EM94
EMMCW    EQU   56                . EMMCW DISPL IN MSB             19019
MSBPTR   EQU   224               . MSB PTR DISPL IN CVT           19019
R9MSB    EQU   9 .            MSB REG                              EM94
.NOEMEQU ANOP                                                      EM94
         SPACE 2
* STAGE 3 OF EXIT EFFECTOR.
*              0             .IQE ADDR.
*              1             .PARAM VALUE.
X3PREV   EQU   2
X3CURR   EQU   3
X3DEB    EQU   4
X3IRBIQE EQU   6
X3UCB    EQU   6
X3WR     EQU   6
X3IQE    EQU   7
X3IRB    EQU   8
XSIRB    EQU   8
X3RET    EQU   9
X3TCB    EQU   10
X3WKX    EQU   13
X3WK15   EQU   15
         AIF   ('&TSO' NE '1').NOTSO0                             20021
*                                                                 20021
* TIME SHARING OPTION (TSO) EQUATES FOR ATTENTION EXIT HANDLING   20021
*                                                                 20021
T1       EQU   1        .GEN.PURPOSE REGS.USED IN STAGE 3-TSO-    20021
.NOTSO0  ANOP                                                     20021
         SPACE 2
* SVC FLIH
XERRNO   EQU   1
SVCPOST  EQU   X'02' .                 SVC NUMBER FOR POST        M0581
SVCEXCP  EQU   X'00' .                 SVC NUMBER FOR EXCP        M0581
XSVCEP   EQU   6
XSVCNO   EQU   6
XTBORG   EQU   7
XTRX     EQU   7
XHIIBM   EQU   8
XTREP    EQU   12
XABTERM  EQU   13
*              14                 .RETURN REG FOR ABTERM.
*              15                 .BASE REG FOR PART OF RTN.
         SPACE 2
         AIF   (&SMF NE 1).NSMFEXD                                  SMF
* EXCP COUNTER.                                                     SMF
R0       EQU   0                                                  19028
ADDRIQE  EQU   1                        .IQE ADDR                 19028
IRBADDR  EQU   1                                                  19028
XSQPTR   EQU   1                                                  19028
LIMOFF   EQU   2                      .OUTLM OFFSET SAVEREG       19028
XSCMMTBL EQU   3                                                  19028
TCBSAVE  EQU   4                      .TCB SAVEREG                19028
XTCBPASS EQU   0                  .PASSED TCB POINTER               SMF
XDCBPAS  EQU   4                   .PASSED DCB POINTER              SMF
XUCBPTR  EQU   7                  .UCB POINTER                      SMF
GMBRNCH  EQU   5                        .GETMAIN  BRANCH          19028
XSEXTEFT EQU   5                                                  19028
XS1      EQU   6                                                  19028
DCBSAVE  EQU   7                      .DCB SAVEREG                19028
IQEADDR  EQU   8                                                  19028
SMCAADR  EQU   9                        .SMCA ADDRESS             M3261
XDCBPTR  EQU   10                  .REAL PP DCB POINTER             SMF
XTIOTD   EQU   10                 .CONTAINS TIOT DD ENTRY DISP.     SMF
XTCBPTR  EQU   11                 .TCB POINTER                      SMF
XTCTPTR  EQU   11                 .TCT POINTER                      SMF
XRWRK    EQU   12                 .WORK REGISTER                    SMF
XTCTSRC  EQU   13                 .LOOK UP TABLE SEARCH POINTER     SMF
XSYSTRTN EQU   10                       .ASYSNCH RTN              19028
XRWRK2   EQU   13                       .WORK REGISTER            19028
XRTN     EQU   14                 .RETURN REGISTER                  SMF
R14      EQU   14                                                 19028
XRWRK4   EQU   14                       .WORK REGISTER            19028
BASESMF  EQU   15                  .EXCP COUNTER ROUTINE BASE     M3261
C96      EQU   96                       .IQE ADDR OFFSET IN IRB   19028
IQEDCB   EQU   16                       .4 BYTE DCB ADDR          19028
IQEOUTLM EQU   20                       .4 BYTE OUTLIM OFFSET    19028
XBASE    EQU   15                 .EXCP COUNTER ROUTINE BASE        SMF
VTCTINIT EQU   4                        .INITIATOR TCB ADDR IN TCT19028
IRBLNGTH EQU   144                      .IRB/IQE LENGTH           19028
STABSIZE EQU   8                        .SIZE(STAB OFSET IN IRB)  19028
ENTRY    EQU   12                       .ENTRY POINT IN IRB       19028
EXITS    EQU   X'20'                    .MASKS FOR SMF EXITS      M3261
DEC56    EQU   56                      DEC OFFSET OF BIN 0       A30586
CELLCTR  EQU   3                       BIN NO COUNTER REG        A30586
CNT11    EQU   11                      INITIAL COUNTER VALUE      20472
DEC16    EQU   16                      DEC OFFSET OF EACH BIN    A30586
         SPACE 2                                                    SMF
.NSMFEXD ANOP                                                       SMF
* SVC TYPE 1 EXIT
X1TCB    EQU   2
*              3
*XRB     EQU   5
*              14
         SPACE 2
* FETCH SEQUENCE
X0       EQU   0
X1       EQU   1
XFWK     EQU   7
XFRETN   EQU   8
XFEP     EQU   9
REGX14   EQU   14                                                 19022
REGX15   EQU   15                                                 19022
ONE      EQU   1                                                  19022
ZERO     EQU   0                                                  19022
FIVE     EQU   5                                                  19022
RERPNM   EQU   7                       . ERP NAME LAST 4 CHAR    M0044
         SPACE 2
         AIF   (&RERP EQ 0).RERP1                                 19017
*                                                                M0044
RERPSR   EQU   8                   .SRCH REG - RERP CDE CHAIN.    19017
.RERP1   ANOP                                                     19017
* MODULE REGISTERS
XTRBASE  EQU   10
XTRET    EQU   11
XCVT     EQU   3             .CVT ADDRESS
XTCB     EQU   4             .TCB ADDRESS OF CURRENT TASK.
XRB      EQU   5             .RB ADDRESS OF CURRENT TASK.
         SPACE 2
*...SVC EQUATES...
         SPACE
EXIT     EQU   3                  .SVC 3...EXIT SERVICE RTN.
         AIF   (&QNOTMP).M65MP00
         TITLE 'ADDITIONAL EQUATES FOR MODEL-65 MULTIPROCESSING'   MP65
TCBABTRM EQU   X'20'                   .ABTERM FLAG                MP65
*...FAIL-SOFT EXTERNAL FLIH FLAGS TO EXIT FROM MALFUNCTION ALERT   MP65
FSIOFLAG EQU   X'01'         .SPINNING ON LOCK IN I/O FLIH.        MP65
FSEXFLAG EQU   X'02'         .SPINNING ON LOCK IN EXTRNAL FLIH.    MP65
FSPIFLAG EQU   X'04'         .SPINNING ON LOCK IN PROGRAM CHECK FL MP65
* EXTERNAL FLIH                                                    MP65
XEXPREF2 EQU   1                       .PREFIX FOR OTH CPU'S PSA.  MP65
XMPCVT   EQU   8                       .MPCVT BASE REG.            MP65
* IO FLIH                                                          MP65
* XMPCVT EQU   8                                                   MP65
* PI FLIH (INCLUDING SSM PROCESSING)                               MP65
XPIRHPSW EQU   2                       .RHPSW TO REEX SSM OR EX.   MP65
XPILOC   EQU   4                       .LOC OF SSM OR EX INSTR     MP65
XPILOC2  EQU   5                       .LOC OF MASK OR SSM INSTR   MP65
XPIR2    EQU   6                       .EXEC-TIME CONT OF R2 REG.  MP65
* XMPCVT EQU   8                       .BASE REG FOR MPCVT.        MP65
XPITCB   EQU   9                       .CURR TCB.                  MP65
XPIRB    EQU   10                      .CURR RB.                   MP65
XPIAFFLK EQU   14                      .INIT AFFLK FOR SSM TRACE.  MP65
* CF     EQU   15                                                  MP65
* TASK-SWITCH AND RELATIVE-PRIORITY SUBROUTINES                    MP65
XRP1     EQU   1                       .TCB1 FOR RELPRIOR          MP65
XRP2     EQU   XRP1+1                  .TCB2 FOR RELPRIOR          MP65
XRP3     EQU   XRP1+2                  .T3B3 FOR RELPRIOR (VAR TCB MP65
XRP4     EQU   XRP1+3                  .RET REG FOR RELPRIOR       MP65
XRP5     EQU   XRP1+4                  .(TSKSW) REG FOR PREFIX2    MP65
* DISPATCHER                                                       MP65
XDSPREF2 EQU   5                       .PREFIX FOR OTHER CPU'S PSA MP65
XDSNEW2  EQU   8                       .'NEW' FOR OTHER CPU (NEW2) MP65
XDSOLD2  EQU   XDSNEW2+1               .'OLD' FOR OTHER CPU (OLD2) MP65
* XMPCVT EQU   8                                                   MP65
* EXIT EFFECTOR STAGE 3                                            MP65
XAEQBASE EQU   5                       .BASE FOR AEQ POINTERS      MP65
X3OLD2   EQU   11                      .HOLD OLD2 FOR CHECKING     MP65
* TYPE 1 SVC EXIT                                                  MP65
* XDSPREF2 EQU 5                                                   MP65
* XMPCVT EQU   8                                                   MP65
* SVC FLIH                                                         MP65
* XMPCVT EQU   8                                                   MP65
* EXTERNAL FLIH SHOULDER TAP MASK EQUATES                          MP65
* (BITS NOT CONSIDERED IN IEAQNU REPRESENTED BY COMMENT CARDS)     MP65
         SPACE 1                                                   MP65
* BYTE 0 - PENDING FLAG, HALT I/O, ETC.                            MP65
WRDPEND  EQU   X'80'                                               MP65
* WRDWTBEL EQU X'20'                                               MP65
* WRDWTCCH EQU X'10'                                               MP65
* WRDWTHIO EQU X'01'                                               MP65
* BYTE 1 - (NOT NOW USED)                                          MP65
* BYTE 2 - FAIL-SOFT (QUIESCE AND VARY-OFF)                        MP65
WRDQUIES EQU   X'80'                                               MP65
WRDDSTOP EQU   X'40'                                               MP65
* BYTE 3 - I/O COMPLETION (CHANNELS 0-6)                           MP65
* (EXFLIH CONSIDERS ONLY WHOLE BYTE)                               MP65
* WRDCHAN0 EQU X'80'                                               MP65
* WRDCHAN1 EQU X'40'                                               MP65
* WRDCHAN2 EQU X'20'                                               MP65
* WRDCHAN3 EQU X'10'                                               MP65
* WRDCHAN4 EQU X'08'                                               MP65
* WRDCHAN5 EQU X'04'                                               MP65
* WRDCHAN6 EQU X'02'                                               MP65
         SPACE 2                                                   MP65
* MISC. IMMEDIATE-FIELD EQUATES                                    MP65
SSMCODE  EQU   X'12'                   .VAL OF PIOPSW+3 FOR SSM.   MP65
SSM      EQU   X'80'                   .OPCODE FOR SSM.            MP65
WRDSHTAP EQU   X'10'                   .WRD MASK FOR SHOLDTAP.     MP65
.M65MP00 ANOP
ENABMASK EQU   X'FF' .                 .ALL BITS 'ENABLED'        M0581
DISABMSK EQU   X'00' .                 .ALL BITS 'DISABLED'       M0581
         AIF   (&QNOTMP).M65MPCV
         MPCVT
IEAQNU00 CSECT                                                     MP65
         USING IEAMPCVT,XMPCVT                                     MP65
.M65MPCV ANOP
         TITLE '             OPTION 4...EXTERNAL FLIH'
         SPACE
*                            EXTERNAL FLIH
         SPACE
         ENTRY IEAQEX00
         AIF   (&QNOTMP).M65MP01
         ENTRY IEAQEXIO                                            65MP
         SPACE 1                                                   65MP
.M65MP01 ANOP
IEAQEX00 DS    0H
         STM   14,15,IEASAV            .SAVE 2 REGS
         BALR  14,0
         USING *,14
         AIF   (&QNOTMP).M65MP02
* FIND IF INTERRUPT OCCURRED IN A FLIH SPIN                        MP65
         TM    FLRETFLG,FSIOFLAG+FSEXFLAG+FSPIFLAG                 MP65
         BZ    EXNORMAL                .B IF NO.                   MP65
         TM    FLRETFLG,FSEXFLAG       .TEST FOR NESTED EXT INT.   MP65
         BZ    EXINFLIH                .B IF NO.                   MP65
         OC    EXOPSW+3(C1),RNEXCODE   .OTHWSE, ACCUMULATE         MP65
         B     EXSVCOND                . INT-CODE BITS.            MP65
EXINFLIH STM   C0,CD,RNSAVGPR          .SAVE OTHER FLIH'S REGS.    MP65
         MVC   RNSAVGPR+C56(C8),IEASAV .INCLD REGS TEMP SAVD BY EX MP65
         MVC   RNSAVPSW(C8),EXOPSW     .SAVE RETN ADDR TO OTH FLIH MP65
EXSVCOND MVC   RNEXCODE(C1),EXOPSW+3   .STORE INT CODE IN PSA.     MP65
         TM    FLRETFLG,FSIOFLAG+FSPIFLAG .INT IN FLIH SPIN.       MP65
         BZ    EXFLIH1                 .B IF NO.                   MP65
         OI    FLRETFLG,FSEXFLAG       .FLAG NESTED EXT INT.       MP65
         B     EXFSREST                . AND RESUME INT'D FLIH.    MP65
EXNORMAL MVC   RNEXCODE(C1),EXOPSW+3   .STORE INT CODE IN PSA.     MP65
.M65MP02 ANOP
         L     XXTCB,IEATCBP+4         .REF CURR TCB.
         STM   0,13,TCBGRS(XXTCB)      .SAVE REGS.
         AIF   (&QM65MP).NOSMF3                                   M3335
        AIF   (&SMF NE 1).NOSMF3                                   SMF
         BAL   EXFLRET,IEAQWAIT   .GO TO SMF SYS WAIT TIME RTN      SMF
.NOSMF3  ANOP                                                      SMF
         MVC   TCBGRS+56(8,XXTCB),IEASAV
         L     XXRB,TCBRBP(0,XXTCB)    .REF CURR RB.
         MVC   RBOPSW(8,XXRB),EXOPSW   .SAVE EX OPSW.
         AIF   (&QNOTMP).M65MP03
EXFLIH1  L     XMPCVT,MPCVTPTR         .BASE REG FOR M65MP CVT     MP65
EXFLIHTS TS    CVTAFFLK+1              .TEST LOCK BYTE             MP65
         BZ    EXFLIHLK                .IF OFF, LOCK AND BRANCH    MP65
         CLC   CVTAFFLK(C1),CPUID      .OTHWSE, CHECK CPU AFFIN    MP65
         BE    EXFLGCLR                .BRANCH IF THIS CPU         MP65
         OI    FLRETFLG,FSEXFLAG       .INDICATE SPINNING IN EX FL MP65
         CNOP  C4,C8                   .INSURE PSW DBL-WD BOUND.   MP65
         LPSW  *+4                     .ENABLE THIS CPU FOR EXTERN MP65
         DC    X'01040000'             .PSW ENABLED FOR EXTERNAL I MP65
         DC    A(*+4)                  .ADDR OF ENABLED INSTR      MP65
         CNOP  C4,C8                   .INSURE PSW DBL-WD BOUND.   MP65
         LPSW  *+4                     .DISABLE EXTERN AND REPEAT  MP65
         DC    X'00040000'             .PSW DISABLED EXCEPT MACH C MP65
         DC    A(EXFLIHTS)             .ADDR OF EX SPIN ON LOCK    MP65
EXFLIHLK MVC   CVTAFFLK(C1),CPUID      .SET AFFINITY BYTE          MP65
EXFLGCLR NI    FLRETFLG,C255-FSEXFLAG  .DELETE EXFLIH-SPIN FLAG.   MP65
         AIF   (&SMF NE 1).M65MP03                                M3335
         BAL   EXFLRET,IEAQWAIT    .GO TO SMF SYS WAIT TIME RTN   M3335
.M65MP03 ANOP
         AIF   (T'&TRACER EQ 'O').GTF01                           21014
* TRACE INTERFACE.
         AIF   (&QNOTMP).M65MP04
         ENTRY EXTRACE                                             TRMP
EXTRACE  NOP   EXTRACE9      .B IF EXFLIH TRACE SUPPRESSED.        TRMP
         L     CF,IEASAV+4             .RESTORE REG FOR TRACE.     TRMP
.M65MP04 ANOP