         MACRO
&NAME    IEAQBK &ADDTRAN,&QTAM,&ROLLOUT,&TMSLICE,&M65MP,&DDR,&FLAG=00, X
               &FLAGB=00,&PATCH=NO,&RPS=NO,&WARN=                   PWF
.*       &FLAGB= 20071,&PATCH=20075,&WARN=PWF
         LCLA  &NUMTACT,&NBAREAS
         LCLA  &A,&B                                               RORI
         LCLA  &N,&TOTAL,&X,&Y,&Z
         LCLB  &QNOTMP,&QM65MP
         LCLC  &TSLICE                                             MTS0
         LCLC  &GENREG(16),&TCBNAME,&PGM,&TYPE,&WAITCT
         LCLC  &ALIAS,&RQUEUE,&JOBSTEP,&SISTER,&ORIGIN,&DAUGHT    M4767
         LCLC  &TASK,&RBSIZE
         LCLC  &DDRTCB                                            19022
         AIF   ('&DDR' EQ '0').NODDRMS                            19022
         EXTRN IGFDDR01                                           19022
         EXTRN IGFDDRSR                                           19022
.NODDRMS ANOP                                                     19022
IEAQBK00 START 0                                                   RORI
.*2841,006880,006960,017400,017800                                 DAR
.*000400,064970                                                   20071
         ENTRY IEAHEAD                                             RORI
         EXTRN IEWFTRAN                                            RORI
         EXTRN IEAQTR00                                            RORI
         EXTRN IEAQTR04                                            RORI
         ENTRY IEAERTCB                                            RORI
         ENTRY IEAMSTCB                                            RORI
         ENTRY IEECVTCB                                            RORI
&DDRTCB  SETC  '0'                                                19022
&WAITCT  SETC  '01'                                                RORI
&SISTER  SETC  '0'                                                 RORI
&ORIGIN  SETC  'IEAMSTCB'                                          RORI
&DAUGHT  SETC  '0'                                                 RORI
&ALIAS   SETC  'IEAHEAD'                                           RORI
&GENREG(1) SETC '0'                                                RORI
&GENREG(2) SETC '0'                                                RORI
&GENREG(7) SETC '0'                                                RORI
&GENREG(9) SETC '0'                                                RORI
&GENREG(12) SETC '0'                                               RORI
&GENREG(14) SETC '0'                                               RORI
&GENREG(15) SETC '0'                                               RORI
&GENREG(16) SETC '0'                                               RORI
&TOTAL   SETA  2+(&ADDTRAN*2)
&QM65MP  SETB  ('&M65MP' EQ '1'  OR  '&M65MP' EQ 'M65MP')
&QNOTMP  SETB  (NOT &QM65MP)
&RBSIZE  SETC  '0D'
&N       SETA  1
&Y       SETA  1
&X       SETA  2
&PGM     SETC  'IEAQTR04'
&TYPE    SETC  'C0'
&RQUEUE  SETC  'IEATCB'.'&X'
&JOBSTEP SETC  'IEATCB'.'&N'
&GENREG(4) SETC 'IEACVT'
&GENREG(10) SETC 'IEWFTRAN'
&GENREG(11) SETC 'IEAQTAQ'
&GENREG(13) SETC 'IEAQTR00'
         AIF   (&QNOTMP).M65MP00
*****************************************************************  65MP
*  THIS FIRST TCB IS FOR USE BY A PARTITIONED M65MP  SYSTEM.       65MP
*  INITIALIZED AT ASSEMBLY TIME TO AN RB WAIT STATE FOR NORMAL     65MP
*  MULTIPROCESSING OPERATIONS.  IN A PARTITIONED SYSTEM,           65MP
*  THE TCB/RB IS SET TO A READY STATE AND IS USED TO REPRESENT     65MP
*  WORK BEING DONE BY THE NON-EXISTENT SECOND CPU.                 65MP
*****************************************************************  65MP
         ENTRY PRTTN                                               65MP
         DC    4D'0'               FLOATING POINT REGISTER SAVE    65MP
IEAHEAD  DS    0D                      .TOP TCB FOR PARTIT SYSTEM. 65MP
PRTTN    DC    A(PRTTNRB)          TCB POINTER TO TOP RB           65MP
         DC    6F'0'               PIE THRU SPQE POINTERS          65MP
         DC    X'00'                   .                           65MP
         DC    XL3'000080'         1ST THRU 3RD FLAG BYTES         65MP
         DC    XL2'0000'           4TH AND 5TH FLAG BYTES          65MP
         DC    XL2'FFFF'           TCB LIM AND DISP PRIORITIES     65MP
         DC    20F'0'              TCB POINTERS AND GPR SAVE AREA  65MP
         DC    A(IEATCB1)          TCB POINTER TO NEXT TCB         65MP
         DC    A(0)                TCB POINTER TO TQE              65MP
         DC    A(PRTTN)            TCB POINTER TO JOB STEP TCB     65MP
         DC    A(0)                    TCB PTR TO SISTER TCB       DAR
         DC    A(&ORIGIN)          TCB POINTER TO ORIGIN TCB       65MP
         DC    10F'0'             LAST TEN TCB POINTERS            DAR
         DC    4F'0'                                          BD A58667
*                                                                  65MP
*  PARTITION TASK'S TOP RB                                         65MP
PRTTNRB  DS    0D                      .                           65MP
         DC    2F'0'               UNUSED FIELD AND RBABOPSW       65MP
         DC    XL4'00040080'       RBWCSA,SIZE,RBSTAB BYTES        65MP
         DC    F'0'                CONTENTS FIELD                  65MP
         DC    XL4'00040000'       1ST WORD OF RBOPSW              65MP
         DC    V(LOCKSTOP)         2ND WORD OF RBOPSW              65MP
         DC    F'0'                QUEUE FIELD FOR SER-REUS PROG   65MP
*  THE WAIT COUNT IS INITIALIZED AT X'FF' FOR MULTIPROCESSING      65MP
         DC    X'FF'               WAIT COUNT                      65MP
         DC    AL3(PRTTN)          RB POINTER TO TCB               65MP
*                                                                  65MP
*                                                                  65MP
&SISTER  SETC  'PRTTN'                                             65MP
&ALIAS   SETC  ''                                                  65MP
.M65MP00 ANOP
.BUILD   ENTRY  IEATCB&N
&GENREG(3) SETC 'TACT'.'&N'
&GENREG(5) SETC 'IEATCB'.'&N'
&GENREG(6) SETC 'RB'.'&N'
&GENREG(8) SETC 'TAIOB'.'&N'
&TASK    SETC  'IEATCB'.'&N'
         SPACE 2                                                   RORI
.BUILD1  ANOP                                                      RORI
         DS    0D                                                  RORI
         DC    4D'0'                   FLOATING PT. SAVE AREA      RORI
&ALIAS   DS    0D                                                  RORI
&TASK    DC    A(RB&N)          TCB POINTER TO TOP RB              RORI
.BUILD2  ANOP                                                      RORI
         DC    A(0)             TCB POINTER TO PIE                 RORI
         DC    A(&DDRTCB)         TCB POINTER TO DEB              19022
         DC    A(0)                TCB POINTER TO TIOT
         DC    F'0'                TCB COMPLETION CODE
         DC    F'0'                TCB TEST RAN FIELD
         DC    A(0)                TCB POINTER TO SPQE
         DC    X'00'               TCB PROTECT KEY
         DC    X'00'               TCB 1ST BYTE OF FLAGS
         DC    X'00'               TCB 2ND BYTE OF FLAGS
         DC    X'80'               0CB 3RD BYTE OF FLAGS
         DC    XL2'0000'           TCB 4TH AND 5TH BYTE OF FLAGS
         DC    X'FF'               TCB LIMIT PRIORITY
         DC    X'FF'               TCB DISPATCHING PRIORITY
         DC    A(0)                TCB POINTER TO LIST OF LOADED PGMS
         DC    A(0)                TCB POINTER TO JOB LIB DCB
         DC    A(0)                TCB POINTER TO JOB PACK QUEUE ELEMNT
         DC    A(&GENREG(1))       TCB SAVE AREA FOR GENERAL REGISTER0
         DC    A(&GENREG(2))       TCB SAVE AREA FOR GENERAL REGISTER1
         DC    A(&GENREG(3))       TCB SAVE AREA FOR GENERAL REGISTER2
         DC    A(&GENREG(4))       TCB SAVE AREA FOR GENERAL REGISTER3
         DC    A(&GENREG(5))       TCB SAVE AREA FOR GENERAL REGISTER4
         DC    A(&GENREG(6))       TCB SAVE AREA FOR GENERAL REGISTER5
         DC    A(&GENREG(7))       TCB SAVE AREA FOR GENERAL REGISTER6
         DC    A(&GENREG(8))       TCB SAVE AREA FOR GENERAL REGISTER7
         DC    A(&GENREG(9))       TCB SAVE AREA FOR GENERAL REGISTER8
         DC    A(&GENREG(10))      TCB SAVE AREA FOR GENERAL REGISTER9
         DC    A(&GENREG(11))      TCB SAVE AREA FOR GENERAL REGISTERA
         DC    A(&GENREG(12))      TCB SAVE AREA FOR GENERAL REGISTERB
         DC    A(&GENREG(13))      TCB SAVE AREA FOR GENERAL REGISTERC
         DC    A(&GENREG(14))      TCB SAVE AREA FOR GENERAL REGISTERD
         DC    A(&GENREG(15))      TCB SAVE AREA FOR GENERAL REGISTERE
         DC    A(&GENREG(16))      TCB SAVE AREA FOR GENERAL REGISTERF
         DC    X'00'               TCB NUMBER OF QUEUED QELS
         DC    AL3(0)              TCB POINTER TO 1ST PROB.PGM.SAVE A.
         DC    A(&RQUEUE)          TCB POINTER TO NEXT TCB ON READY Q.
         DC    A(0)                TCB POINTER TO TIMER QUEUE ELEMENT
         DC    A(&JOBSTEP)         TCB POINTER TO JOB STEP TCB
         DC    A(0)                    TCB PTR TO NEXT SUBTASK TCB DAR
         DC    A(&ORIGIN)          TCB POINTER TO ORIGIN TCB
         DC    A(&DAUGHT)          TCB POINTER TO LAST TCB.       19022
         DC    A(0)                TCB POINTER TO IQE
         DC    A(0)                TCB POINTER TO ECB
         DC    A(0)                TCB POINTER TO SELF-END-OF-TASK
         DC    A(0)                TCB POINTER TO PQE
         DC    A(0)                TCB POINTER TO AQE              MO17
         DC    A(0)                TCB POINTER TO STAE             MO17
         DC    A(0)                TCB POINTER TO TCT              MO17
         DC    A(0)                TCB POINTER TO USER FIELD       MO17
         DC    AL1(0)              TCB DAR FLAGS                   DAR
         DC    AL3(0)              RESERVED                        DAR
         DC    AL4(0)              RESERVED                        I254
         DC    AL1(0)              RESERVED                        I254
         DC    AL3(0)              TCB WTP POINTER TCBJSCB         I254
         DC    2F'0'                                          BD A58667
&ALIAS   SETC  ''                                                  RORI
         AIF   ('&JOBSTEP' EQ 'IEAROTCB').BUILDA                   RORI
*
         MNOTE *,' RB AT TOP OF &TASK ''S RB QUEUE '               APAR
*
         AIF   ('&TCBNAME' NE 'IEECVTCB').NOCVTCB
         ENTRY IEECVPRB
         EXTRN IEECVCTW
RB&N     DS    0D
IEECVPRB EQU   RB&N
         AGO   .SKIPWTO
.BUILDA  ANOP                                                      RORI
*                                                                  RORI
*   ROLLOUT/ROLLIN PRB                                             RORI
*                                                                  RORI
.NOCVTCB ANOP
RB&N     DS    0D                  START RB
.SKIPWTO ANOP
         DC    F'0'                NOT USED
         DC    F'0'                BITS 32-63 OF PSW(SAVED BY ABEND)
         DC    X'00'               WAIT COUNT SAVE AREA
         DC    X'&RBSIZE'          RB SIZE
         DC    XL2'&TYPE.80'       TYPE AND LINK FIELD INDICATORS
         DC    F'0'                CONTENTS FIELD
         DC    X'00040000'         1ST WORD OF RBOPSW
         DC    A(&PGM)             2ND WORD OF ROBPSW
         DC    A(0)                QUEUE FIELD FOR SERIALLY REUSEABLE P
         DC    X'&WAITCT'          WAIT COUNT
         AIF   (&N LE &TOTAL).TAG01
         DC    AL3(&TCBNAME)      RB POINTER TO TCB
         AIF   ('&JOBSTEP' EQ 'IEAROTCB').BUILD0                   RORI
         AGO   .TAG02
.TAG01   DC    AL3(IEATCB&N)      RB POINTER TO TCB
         DC    18X'00000000'      RB REGISTER SAVE + 2 EXTENDED WD
&SISTER  SETC  'IEATCB'.'&N'
&N       SETA  &N+1
&X       SETA  &X+1
&JOBSTEP SETC  'IEATCB'.'&N'
&RQUEUE  SETC  'IEATCB'.'&X'
         AIF   (&N LT &TOTAL).BUILD
&RQUEUE  SETC  'IEAERTCB'
         AIF   (&N EQ &TOTAL).BUILD
.TAG02   AIF   (&Y EQ 4).TAG05
         AIF   (&Y EQ 2).TAG03
         AIF   (&Y EQ 3).TAG04
         AIF   (&Y EQ 5).TAGORM2                                  19022
&TASK    SETC  'IEAERTCB'
&TYPE    SETC  '00'
         AIF   ('&ROLLOUT' EQ '').TAG022                           RORI
&RQUEUE  SETC  'IEAROTCB'                                          RORI
         AGO   .TAG024                                             RORI
.TAG022  ANOP                                                      RORI
&RQUEUE  SETC  'IEECVTCB'                                          RORI
.TAG024  ANOP                                                      RORI
&JOBSTEP SETC  'IEAERTCB'
&Z       SETA  &N-1
&SISTER  SETC  'IEATCB'.'&Z'
&GENREG(3) SETC '0'
&GENREG(4) SETC '0'
&GENREG(5) SETC '0'
&GENREG(6) SETC '0'
&GENREG(8) SETC '0'
&GENREG(10) SETC '0'
&GENREG(13) SETC '0'
&RBSIZE  SETC  '04'
&PGM     SETC  '0'
&TCBNAME SETC  'IEAERTCB'
&N       SETA  &N+1
&Y       SETA  &Y+1
         AGO   .BUILD1
.TAG03   ANOP
         AIF   ('&ROLLOUT' EQ '').TAG035                           RORI
         ENTRY IEAROTCB                                            RORI
&TASK    SETC  'IEAROTCB'                                          RORI
&RQUEUE  SETC  'IEECVTCB'                                          RORI
&JOBSTEP SETC  'IEAROTCB'                                          RORI
&SISTER  SETC  'IEAERTCB'                                          RORI
&RBSIZE  SETC  '04'                                                RORI
&PGM     SETC  '0'                                                 RORI
&TCBNAME SETC  'IEAROTCB'                                          RORI
&N       SETA  &N+1                                                RORI
*                                                                  RORI
*    ROLLOUT/ROLLIN TCB                                            RORI
*                                                                  RORI
         AGO   .BUILD1                                             RORI
.BUILD0  ANOP                                                      RORI
*                                                                  RORI
*   ROLLOUT/ROLLIN IQE'S AND PARAMETER LIST'S                      RORI
*                                                                  RORI
         ENTRY IEAROIRB                                            RORI
&A       SETA  1                                                   RORI
&B       SETA  2                                                   RORI
IEAROIRB DS    0D                                                  RORI
          DC   X'00'               FLAGS FOR TIMER ROUTINE         RORI
          DC   X'000000'           ADDRESS OF REGISTER SAVE AREA   RORI
          DC   F'0'                ABNORMAL OLD PSW                RORI
          DC   X'00'               WAIT COUNT SAVE AREA            RORI
          DC   X'2B'               SIZE OF RB IN DOUBLE WORDS      RORI
          DC   X'4008'             STATUS AND ATTRIBUTE BITS       RORI
          DC   V(IEAQRORI)         ENTRY POINT ADDRESS             RORI
          DC   2F'0'               OLD PSW                         RORI
          DC   X'00'               ATTACH USE COUNT                RORI
          DC   X'000000'           LIST ORIGIN FOR IQE'S ON IRB    RORI
          DC   X'00'               WAIT COUNT                      RORI
         DC    X'000000'          ADDRESS OF NEXT RB ON RB QUEUE   RORI
          DC   16F'0'              GENERAL REGISTER SAVE AREA      RORI
         DC    A(IQE&A)            ADDRESS OF NEXT AVAILABLE       RORI
          DC   F'0'                PADDING TO DOUBLE WORD BOUNDARY RORI
         SPACE 2                                                   RORI
&SISTER  SETC  'IEAROTCB'                                          RORI
         SPACE 2                                                   RORI
.IQELOOP ANOP                                                      RORI
*                                                                  RORI
         MNOTE *,'ROLLOUT IQE NUMBER &A  '                         RORI
*                                                                  RORI
IQE&A    DC    A(IQE&B)            ADDRESS OF NEXT IQE ON QUEUE    RORI
.IQE     DC    A(0)                ADDRESS OF PARAMETER LIST       RORI
         DC    A(IEAROIRB)         ADDRESS OF ROLLOUT/ROLLIN IRB   RORI
         DC    A(IEAROTCB)         ADDRESS OF ROLLOUT/ROLLIN TCB   RORI
*                                                                  RORI
         MNOTE *,'ROLLOUT PARAMETER LIST NUMBER &A  '              RORI
*                                                                  RORI
         DC    F'0'                ADDRESS OF REQUESTING TCB       RORI
         DC    F'0'                HIER ID AND SIZE OF PQE         RORI
&A       SETA  &A+1                                                RORI
         AIF   (&A EQ 1).TAG0355                                   RORI
&B       SETA  &B+1                                                RORI
         AIF   (&A LE 9).IQELOOP                                   RORI
&A       SETA  0                                                   RORI
IQE10    DC    A(0)                                                RORI
         AGO   .IQE                                                RORI
.TAG035  ANOP                                                      RORI
*                                                                  RORI
         MNOTE *,'GENERATE DUMMY TCB + IRB IN ABSENCE OF ROLLOUT'  RORI
*                                                                  RORI
         ENTRY IEAROTCB                                            RORI
         ENTRY IEAROIRB                                            RORI
         DS    0D                                                  RORI
IEAROTCB DC    F'0'                ADDRESS OF NEXT RB ON RB QUEUE  RORI
         DC    F'0'                PAD TO DOUBLE WORD BOUNDARY     RORI
IEAROIRB DC    2F'0'                    DUMMY IRB                  RORI
.TAG0355 ANOP                                                      RORI
&PGM     SETC  'IEECVCTW'
&TASK    SETC  'IEECVTCB'
         AIF   ('&ROLLOUT' EQ '').TAG036                           RORI
&SISTER  SETC  'IEAROTCB'                                          RORI
         AGO   .TAG038                                             RORI
.TAG036  ANOP                                                      RORI
&SISTER  SETC  'IEAERTCB'                                          RORI
.TAG038  ANOP                                                      RORI
         AIF   ('&DDR' EQ '1').TAGORM3                            19022
&RQUEUE  SETC  'IEAMSTCB'
.TAGORM4 ANOP                                                     19022
&JOBSTEP SETC  'IEECVTCB'
&TCBNAME SETC  'IEECVTCB'
&N       SETA  &N+1
&Y       SETA  &Y+1
         AGO   .BUILD1
.TAGORM3 ANOP                                                     19022
&RQUEUE  SETC  'IGFRMTCB'                                         19022
         AGO   .TAGORM4                                           19022
.TAG04   ANOP
         AIF   ('&DDR' EQ '1').TAGORM1                            19022
.TAGORM0 ANOP                                                     19022
&PGM     SETC  '0'
&WAITCT  SETC  '00'
&TASK    SETC  'IEAMSTCB'
&SISTER  SETC  '0'
&RQUEUE  SETC  '0'
&ORIGIN  SETC  '0'
&JOBSTEP SETC  'IEAMSTCB'
&TCBNAME SETC  'IEAMSTCB'
         AIF   ('&DDR' EQ '1').TAGORM5                            19022
&DAUGHT  SETC  'IEECVTCB'
.TAGORM6 ANOP                                                     19022
&N       SETA  &N+1
&Y       SETA  &Y+1
         AGO   .BUILD1
.TAGORM5 ANOP                                                     19022
&DAUGHT  SETC  'IGFRMTCB'                                         19022
         AGO   .TAGORM6                                           19022
.TAGORM1 ANOP                                                     19022
         ENTRY IGFRMTCB                                           19022
         ENTRY DDRRB                                              19022
         EXTRN DDRDEB                                             19022
         EXTRN IGF201                                             19022
         EXTRN IORMSWT                                            19022
         EXTRN IORMSSVC                                           19022
&DDRTCB  SETC  'DDRDEB'                                           19022
&TASK    SETC  'IGFRMTCB'                                         19022
&RQUEUE  SETC  'IEAMSTCB'                                         19022
&JOBSTEP SETC  'IGFRMTCB'                                         19022
&SISTER  SETC  'IEECVTCB'                                         19022
&TCBNAME SETC  'IGFRMTCB'                                         19022
&N       SETA  &N+1                                               19022
&Y       SETA  &Y+2                                               19022
&PGM     SETC  'IORMSSVC'                                         19022
&GENREG(4) SETC  'IEACVT'                                         19022
&GENREG(5) SETC  'IGFRMTCB'                                       19022
&GENREG(6) SETC  'RB'.'&N'                                        19022
&GENREG(12) SETC 'IGF201'                                         19022
&GENREG(13) SETC 'IGFDDR01'                                       19022
&GENREG(15) SETC 'IORMSWT'                                        19022
&GENREG(16) SETC 'IGFDDRSR'                                       19022
         AGO   .BUILD1                                            19022
.TAGORM2 ANOP                                                     19022
DDRRB    EQU   RB&N                                               19022
&GENREG(4)   SETC  '0'                                            19022
&GENREG(5)   SETC  '0'                                            19022
&GENREG(6)   SETC  '0'                                            19022
&GENREG(12)  SETC  '0'                                            19022
&GENREG(13)  SETC  '0'                                            19022
&GENREG(15)  SETC  '0'                                            19022
&GENREG(16)  SETC  '0'                                            19022
&DDRTCB  SETC  '0'                                                19022
&N       SETA  &N+1                                               19022
&Y       SETA  &Y-2                                               19022
         AGO   .TAGORM0                                           19022
.TAG05   ANOP
*
*   TRANSIENT AREA CONTROL TABLE
*
&N       SETA 1
&NUMTACT SETA &TOTAL
         ENTRY IEAQTAQ
         ENTRY IEAQTAQ1
IEAQTAQ  DS    0D
         DC    F'0'
         DC    F'&TOTAL'           TOTAL NUMBER OF TACT ENTRIES
.TAG06  ANOP
TACT&N   DC    X'20'
         DC    AL3(TRAREA&N)       ADDRESS OF ASSOCIATED T. AREA
         DC    F'0'
         DC    F'0'
         DC    A(IEATCB&N)         ADDRESS OF ASSOCIATED T. AREA TCB
&N       SETA  &N+1
&NUMTACT SETA  &NUMTACT-1
        AIF   (&NUMTACT NE 0).TAG06
IEAQTAQ1 DS    0CL4
*
*     TRANSIENT AREA IOB
*
&NBAREAS SETA  &TOTAL
&N       SETA  1
.TAG07   ENTRY TAIOB&N
TAIOB&N  DS    0D
         DC    X'02'
         DC    X'000000'
         DC    A(ECB&N)            TAIOB POINTER TO ASSOCIATED ECB
         DC    F'0'
         DC    F'0'
         DC    A(CCW&N)            TAIOB POINTER TO ASSOCIATED CCW
         DC    A(SVCDCB)           TAIOB POINTER TO SVC DCB
         DC    F'0'
         DC    F'0'
SEEK&N   DC    F'0'
         DC    F'0'
CCW&N    DC    X'31'
         DC    AL3(SEEK&N+3)       TAIOB POINTER TO SEEK ADDRESS +3.
         DC    X'60'
         DC    X'000005'
         DC    X'08'
         DC    AL3(CCW&N)          TAIOB POINTER TO CCW
         DC    X'40'
         DC    X'000001'
         DC    X'06'
         DC    AL3(TRAREA&N)       TAIOB POINTER TO ASSOCIATED T. AREA
         DC    F'0'
ECB&N    DC    F'0'
         DS    0D
TRAREA&N DC    128X'0000000000000000'
&NBAREAS SETA  &NBAREAS-1
&N       SETA  &N+1
         AIF   (&NBAREAS GE 1).TAG07
*
*  ERROR TCB TRANSIENT AREA IOB
*
         ENTRY IEAERRTA
         ENTRY IEAERWA
IEAERWA  DS    0D
ERRIOB   DC    X'02'
         DC    X'000000'
         DC    A(ERRECB)
         DC    F'0'
         DC    F'0'
         DC    A(ERRCCW1)
         DC    A(SVCDCB)
         DC    F'0'
         DC    F'0'
ERRSEEK  DC    F'0'
         DC    F'0'
ERRCCW1  DC    X'31'
         DC    AL3(ERRSEEK+3)
         DC    X'60'
         DC    X'000005'
ERRCCW2  DC    X'08'
         DC    AL3(ERRCCW1)
         DC    X'40'
         DC    X'000001'
ERRCCW3  DC    X'06'
         DC    AL3(IEAERRTA)
         DC    F'0'
ERRECB   DC    F'0'
*
*   ERROR TCB TRANSIENT AREA
*
IEAERRTA DS    0D
         DC    128D'0'             EXPANDED TO 1024 FOR REL. 15.   RORI
       EJECT
*
*    SVC/LINK  LIBRARY'S DEBS AND DCBS
*
         ENTRY LINKDCB
         ENTRY SVCDCB
         ENTRY IEAQLPAQ
         EXTRN IECXAPG
*
         DS    0D
LINKDCB  EQU   *-44
         DC    F'0'                                                MXMV
SVCDCB   EQU   *-44
         DC    F'0'                                                MXMV
*
         ENTRY IEASVDCB
         ENTRY IEFLINK
IEFLINK  EQU   LINKDCB
IEASVDCB EQU   SVCDCB
IEAQLPAQ DC    F'0'
*                                                                  MTS0
*        TIME SLICE CONTROL ELEMENTS                               MTS0
*                                                                  MTS0
         AIF   (N'&TMSLICE EQ 0).NOSLICE                           MTS0
         ENTRY IEATSCE                                             MTS0
         ENTRY IEATSTQE                                            MTS0
IEATSCE  DS    0D                                                  MTS0
&X       SETA  0                                                   MTS0
&N       SETA  1                                                   MTS0
&TSLICE  SETC  'TSLICE'                                            MTS0
.TSCE    ANOP                                                      MTS0
         AIF   (&TMSLICE(&N) EQ 0).TSCE1                           MTS0
         AIF   (&N GT 10).DISP                                     MTS0
         DC    X'&X.B'                  DISP. PRIORITY             MTS0
         AGO   .TSCEBLD                                            MTS0
.DISP    AIF   (&N GT 11).DISP1                                    MTS0
         DC    X'AB'                    DISP.PRIORTY               MTS0
         AGO   .TSCEBLD                                            MTS0
.DISP1   AIF   (&N GT 12).DISP2                                    MTS0
         DC    X'BB'                    DISP. PRIORITY             MTS0
         AGO   .TSCEBLD                                            MTS0
.DISP2   AIF   (&N GT 13).DISP3                                    MTS0
         DC    X'CB'                    DISP. PRIORITY             MTS0
         AGO   .TSCEBLD                                            MTS0
.DISP3   AIF   (&N GT 14).DISP4                                    MTS0
         DC    X'DB'                    DISP. PRIORITY             MTS0
         AGO   .TSCEBLD                                            MTS0
.DISP4   DC    X'EB'                    DISP. PRIORITY             MTS0
.TSCEBLD DC    AL3(0)                   FIRST TCB                  MTS0
         DC    A(0)                     LAST TCB                   MTS0
         DC    A(0)                     NEXT TCB TO BE DISPATCHED  MTS0
         DC    F'&TMSLICE(&N)'          TIME SLICE VALUE           MTS0
.TSCE1   ANOP                                                      MTS0
&X       SETA  &X+1                                                MTS0
&N       SETA  &N+1                                                MTS0
         AIF   (&N LE 15).TSCE                                     MTS0
         ORG   *-4                                                 MTS0
         DC    X'80'                    END OF TSCE BLOCKS         MTS0
         ORG   *+4                                                 MTS0
IEATSTQE DS    0D                                                  MTS0
TSTQE    EQU   *                                                   MTS0
         DC    X'80'                                               MTS0
         DC    X'00000000'                                         MTS0
TQEFLNK  DC    X'000000'                                           MTS0
         DC    X'00'                                               MTS0
TQEBLNK  DC    X'000000'                                           MTS0
TQEVAL   DC    F'0'                                                MTS0
         DC    4F'0'                                              M0138
         AIF   (&QNOTMP).M65MPTS
TSTEQB   DS    0D                       TIME-SLICING TQE FOR CPU-B TSMP
         DC    X'80'                                               TSMP
         DC    X'00000000'                                         TSMP
TQEFLNKB DC    X'000000'                                           TSMP
         DC    X'00'                                               TSMP
TQEBLNKB DC    X'000000'                                           TSMP
TQEVALB  DC    F'0'                                                TSMP
         DC    4F'0'                                              M0138
.M65MPTS ANOP
.NOSLICE ANOP                                                      MTS0
*                                                                  MTS0
*  GENERATE THE CVT TABLE FOR MS1 SYSTEM
*
         DC    A(0)                                               19026
         IHBRELNO
         AIF   (&QM65MP).CVTVMS
IEACVT   CVT   SYS=VMS,OPTIONS=(&TSLICE,INTERVAL),FLAG=&FLAG,     19095X
               FLAGB=&FLAGB,PATCH=&PATCH,RPS=&RPS,WARN=&WARN        PWF
.CVTVMS  ANOP
         AIF   (&QNOTMP).CVTMPS