         MACRO
&NAME    IGFINIT &SYS,&MCS,&MP
**    IGFINIT IS A MACRO WHICH WAS CREATED FOR MCH FOR REL 20(20061) **
&NAME    DC    A(8*1024) *         MAX. SIZE OF CORE NEEDED BY MCH
*                                  IN THE OS NUCLEUS
         DC    F'0' *              PTR TO RMS NUCLEUS IN OS NUC
         DC    V(IGFMSB00) *       PTR TO MACHINE STATUS BLOCK
         DC    A(IGFREFRS) *       PTR TO LIST OF REFRESHABLE AREA PTRS
         AIF   ('&SYS' NE '4').NOTMVT1
         DC    V(IEARMSAD) *       PTR TO LOCATION IN DISPATCHER WHICH
*                                  IS TO HAVE PTR TO 'IGFPOST2'
         DC    V(IEARMSSW) *       PTR TO NOP IN DISPATCHER
         AGO   .DSPVCON
.NOTMVT1 ANOP
         DC    V(IEARMSAD) *       PTR TO LOCATION IN DISPATCHER WHICH
*                                  IS TO HAVE PTR TO 'IGFPOST2'
         DC    V(IEARMSSW) *       PTR TO NOP IN DISPATCHER
.DSPVCON ANOP
         DC   F'0' *               PTR TO RMSEXCP
         DC   F'0' *               PTR TO RMSLDADR
         DC   F'0' *               PTR TO RMSPSTAD
         DC   F'0' *               PTR TO TRANSIENT AREA PTR
         DC   F'0' *               PTR TO COMMON AREA PTR
         DC   V(IECRMS) *          PTR TO RMS ENTRY INTO IOS
         DC   F'0' *               PTR TO IGFCINT
         DC   V(IECINT) *          PTR TO IOS
         DC   F'0' *               POST ROUTINE PARAMETER LIST ADDRESS
         DC    V(SIRB) *           PTR TO SIRB
         AIF   ('&SYS' NE '4').NOTMVT2
         DC    V(IEAERWA) *        PTR TO IOB FOR ERROR TRANS AREA
         AGO   .REFRESH
.NOTMVT2 ANOP
         DC    V(IEAAXSNT) *       PTR TO IOB FOR ERROR TRANS AREA
.REFRESH ANOP
         DC    F'0' *              PTR TO IGFPOST2
         DC    F'0' *              SAVE AREA FOR COMMON AREA ADDR
         AIF   ('&SYS' NE '2').NOTMVT3
         DC    V(IEAASNT2) *       PTR TO IEAASNT2
         AGO   .NOFILR
.NOTMVT3 ANOP
         DC    F'0' *              FILLER IN MVT
.NOFILR  ANOP
         DC    F'0' *              SYSGENED AND IPLED MODEL NO.
         DC    V(IFBACTA) *        PTR TO CHANNEL ASIGNMENTS
SUBSINT  DC   F'0' *               SUB SYSTEM INTERFACE
SUBSFLGS EQU  SUBSINT+3 *          FLAGS FOR SUBSYSTEM INTERFACE
         AIF   ('&SYS' NE '4').NOTMVT4
         DC    V(IEA0IO01)         IOS NEST SWITCH
         AGO   .CONT
.NOTMVT4 ANOP
         DC    V(IORGSW)           IOS NEST SWITCH
.CONT    ANOP
IGFREFRS EQU   *
         AIF ('&SYS' NE '2').NOTMFT BRANCH IF NOT MFT
         DC    V(IGC011A0)
         DC    V(IGC011A1)
         DC    V(IEAGENA0)
         DC    V(IEAGENA1)
         AIF ('&MCS' EQ '0').NOTMCS1   BRANCH IF NOT MCS
         DC    V(IEECMWA0)
         DC    V(IEECMWA1)
         AGO   .MCS1
.NOTMCS1 ANOP
         DC    V(IEEBA1A0)
         DC    V(IEEBA1A1)
.MCS1    ANOP
         AGO   .END
.NOTMFT  ANOP
         AIF   (NOT(('&SYS' EQ '4') AND ('&MP' EQ '0'))).TSTMP
         DC    V(IGC011A0)
         DC    V(IGC011A1)
         DC    V(IEAQENA0)
         DC    V(IEAQENA1)
         AIF   ('&MCS' EQ '0').NOTMCS2   BRANCH IF NOT MCS
         DC    V(IEECMWA0)
         DC    V(IEECMWA1)
         DC    V(IEECMEA0)
         DC    V(IEECMEA1)
         AGO   .MCS2
.NOTMCS2 ANOP
         DC    V(IEEBA1A0)
         DC    V(IEEBA1A1)
         DC    V(IEECVCA0)
         DC    V(IEECVCA1)
         DC    V(IEECVEA0)
         DC    V(IEECVEA1)
         SPACE
.MCS2    ANOP
         AGO   .END
.TSTMP   ANOP
         AIF   (NOT(('&SYS' EQ '4') AND ('&MP' EQ '1'))).END
         DC    V(IGC011A0)
         DC    V(IGC011A1)
         AIF   ('&MCS' EQ '0').NOTMCS3   BRANCH IF NOT MCS
         DC    V(IEECMWA0)
         DC    V(IEECMWA1)
         AGO   .MCS3
.NOTMCS3 ANOP
         DC    V(IEEBA1A0)
         DC    V(IEEBA1A1)
.MCS3    ANOP
         AGO   .END
.END     ANOP
         DC    X'FFFFFFFF'             INDICATOR FOR END OF REFRESH
         MEND
