         MACRO
&NAME    IHBXLIN   &NAMES
         GBLB  &M(12)
         GBLC  &N(12)
         GBLA  &P
         LCLC  &T(12),&D
         LCLA  &U,&X,&Y
         LCLB  &V
&U       SETA  N'&NAMES
         AIF   (&U NE 0).LOOP
         MNOTE 'NO OPERANDS IN MACRO INSTRUCTION.'
         MEXIT
.LOOP    ANOP
&X       SETA  0
         AIF   (&Y EQ &U).OUT
&Y       SETA  &Y+1
.LOOP1   AIF   (&X EQ &P).UNDEF
&X       SETA  &X+1
         AIF   ('&NAMES(&Y)' NE '&N(&X)').LOOP1
         AIF   (NOT &M(&X)).INVALSM
&M(&X)   SETB  0
         AGO   .LOOP
.INVALSM MNOTE *,'&NAMES(&Y) IS INVALID AT THIS POINT.'
         AGO   .LOOP
.UNDEF   MNOTE *,'&NAMES(&Y) IS UNDEFINED.'
         AGO   .LOOP
.SETV    ANOP
&V       SETB  1
.OUT     AIF   (&X EQ &P).END
&X       SETA  &X+1
         AIF   (&M(&X)).SETV
&T(&X)   SETC  '&D'.'&N(&X)'
&D       SETC  ','
         AGO   .OUT
.END     AIF   (NOT &V).ALL
 MNOTE *,'&T(1)&T(2)&T(3)&T(4)&T(5)&T(6)&T(7)&T(8)&T(9)&T(10)&T(11)'
         AGO   .END2
.ALL     ANOP
* ALL
.END2    AIF   ('&NAME' EQ '').END3
&NAME  EQU   *
.END3    MEND
