         MACRO
&NAME    IHBXLE    &NAMES,&BRADR
         GBLA  &B(12),&C(12),&P
         GBLB  &M(12)
         GBLC  &N(12),&R
         LCLC  &T(12),&D
         LCLA  &U,&X,&Y,&Z
&U       SETA  N'&NAMES
.PRELOOP AIF   (&X EQ &P).OUTLOOP
&X       SETA  &X+1
         AIF   (&M(&X)).PRELOOP
&B(&X)   SETA  2*&B(&X)
&C(&X)   SETA  &C(&X)+1
         AGO   .PRELOOP
.OUTLOOP ANOP
&X       SETA  0
         AIF   (&Y EQ &U).PSTLOOP
&Y       SETA  &Y+1
.INLOOP  AIF   (&X EQ &P).UNDEF
&X       SETA  &X+1
         AIF   (&M(&X) AND ('&NAMES(&Y)' EQ '&N(&X)')).INVALSM
         AIF   ('&NAMES(&Y)' NE '&N(&X)').INLOOP
&M(&X)   SETB  1
&B(&X)   SETA  &B(&X)+1
         AGO   .OUTLOOP
.UNDEF   MNOTE *,'&NAMES(&Y) IS UNDEFINED.'
         AGO   .OUTLOOP
.INVALSM MNOTE *,'&NAMES(&Y) IS INVALID AT THIS POINT.'
         AGO   .OUTLOOP
.PSTLOOP AIF   (&X EQ &P).OUT1
&X       SETA  &X+1
         AIF   (&M(&X)).PSTLOOP
&T(&X)   SETC  '&D'.'&N(&X)'
&D       SETC  ','
         AGO   .PSTLOOP
.OUT1    ANOP
&NAME    BXLE  &R,&R,&BRADR
 MNOTE *,'&T(1)&T(2)&T(3)&T(4)&T(5)&T(6)&T(7)&T(8)&T(9)&T(10)&T(11)'
         MEND
