         MACRO
&NAME    IHBXLOUT  &BRADR
         GBLB  &M(12)
         GBLA  &P
         LCLA  &X
&NAME    BC    15,&BRADR
.LOOP    AIF   (&X GT &P).END
&X       SETA  &X+1
&M(&X)   SETB  1
         AGO   .LOOP
.END     MEND
