         MACRO
&NAME    IHBXLENT  &REG,&ENTSZ,&TABNM,&NAMES
         GBLA  &B(12),&C(12),&P,&Q
         GBLB  &M(12)
         GBLC  &R,&S,&TAB,&N(12)
         LCLA  &X
&P       SETA  N'&NAMES
&R       SETC  '&REG'
&S       SETC  '&ENTSZ'
&TAB     SETC  '&TABNM'
.LOOP1   AIF   (&X EQ &P).OUT1
&X       SETA  &X+1
&C(&X)   SETA  1
&N(&X)   SETC  '&NAMES(&X)'
         AGO   .LOOP1
.OUT1    ANOP
* ALL
         AIF   ('&ENTSZ' NE 'H').END
&NAME    LH    &R,&TAB.(&R)
         SLL   &R,16
&Q       SETA  16
         MEXIT
.END     ANOP
&NAME    ALR   &R,&R
         L     &R,&TAB.(&R)
&Q       SETA  32
         MEND
