         MACRO
&NAME    GTSIZE &A                      PROTOTYPE
         AIF   (N'&SYSLIST EQ 0).PARMOK      IS OPERAND BLANK
.PARMBAD ANOP
         IHBERMAC 238
.* THIS CALL TO ERMAC SAYS 'EXCESS POSITIONAL PARMS.' NONE ARE ALLOWED.
         MEXIT                          EXIT
.PARMOK  ANOP
&NAME    SR    1,1                      PREPARE PARM
         LA    0,11                     LOAD ENTRY CODE
         SLL   0,24                     PUT ENTRY CODE IN LEFT MOST
         SVC   94                       ISSUE SVC
         MEND
