         MACRO
&NAME    QTIP  &NO,&PARM
*
         AIF   (T'&PARM EQ 'O').NOPARM
         AIF   ('&PARM' EQ '&PARM(1)').LADDR
         AIF   ('&PARM(1)' NE '1').LREG
&NAME    LA    0,&NO                    LOAD ENTRY CODE
         AGO   .SAVE
.NOPARM  ANOP
&NAME    SR    1,1                      IND NO PARAMETERS BEING PASSED
         LA    0,&NO                    LOAD ENTRY CODE
         AGO   .SVC
.LADDR   ANOP
&NAME    LA    1,&PARM                  LOAD ADDRESS OF SAVE AREA
         AGO   .LCODE
.LREG    ANOP
&NAME    LR    1,&PARM(1)               LOAD ADDRESS OF SAVE AREA
.LCODE   LA    0,&NO                    LOAD ENTRY CODE
.SAVE    STM   2,13,0(1)                SAVE REGISTERS
.SVC     SVC   101                      ISSUE QTIP SVC
         MEND
