         MACRO
&NAME    SPAUTOPT &A
.**********************************************************************
.*                                                                    *
.*                                                                    *
.*RELEASE 23 DELETIONS                                                *
.*                                                                    *
.*RELEASE 22 DELETIONS                                                *
.*                                                                    *
.*RELEASE 21 DELETIONS                                                *
.*                                                                    *
.*STATUS - CHANGE LEVEL 000                                           *
.*                                                                    *
.*NAME - SPAUTOPT                                                     *
.*                                                                    *
.*FUNCTION - THE SPAUTOPT MACRO ALLOWS THE USER TO TERMINATE AUTOMA-  *
.*   TIC LINE NUMBERING OR AUTOMATIC CHARACTER PROMPT.                *
.*                                                                    *
.*       THE MACRO PROTOTYPE IS ABOVE                                 *
.*                                                                    *
.*       THE STANDARD FORM OF THE EXPANSION IS BELOW                  *
.*                                                                    *
.*&NAME  SR    1,1                      PREPARE PARM                  *
.*       LA    0,13                     LOAD ENTRY CODE               *
.*       SLL   0,24                     PUT ENTRY CODE IN HIGH ORDER  *
.*                                      BYTE OF REGISTER              *
.*       SVC   94                       ISSUE SVC                     *
.*                                                                    *
.**********************************************************************
         AIF   ('&A' NE '').ERROR
&NAME    SR    1,1                      PREPARE PARM
         LA    0,13                     LOAD ENTRY CODE
         SLL   0,24                     PUT ENTRY CODE IN HIGH ORDER
.*                                      BYTE IN REG
         SVC   94                       ISSUE SVC
         MEXIT
.ERROR   ANOP
         IHBERMAC 36,,&A
         MEXIT
         MEND
