         MACRO
&NAME    STTIMEOU &A                    PROPOTYPE
.**********************************************************************
.*                                                                    *
.*RELEASE 23 DELETIONS                                                *
.*                                                                    *
.*RELEASE 22 DELETIONS                                                *
.*                                                                    *
.*RELEASE 21 DELETIONS                                                *
.*                                                                    *
.*STATUS - CHANGE LEVEL 000                                           *
.*                                                                    *
.*NAME - STTIMEOU                                                     *
.*                                                                    *
.*FUNCTION - THE STTIMEOU MACRO IS USED TO SPECIFY WHETHER OR NOT THE *
.*   TERMINAL HAS THE TIMEOUT FEATURE.                                *
.*       THE MACRO PROTOTYPE IS ABOVE                                 *
.*                                                                    *
.*                                                                    *
.*       THE STANDARD FORM OF THE EXPANSION IS BELOW                  *
.*                                                                    *
.*&NAME  LA    1,128                    LOAD FLAG BYTE                *
.*       SLL   1,24                     PUT ABOVE IN LEFT MOST IN REG *
.*       LA    0,6                      LOAD ENTRY CODE               *
.*       SLL   0,24                     PUT ENTRY CODE IN LEFT MOST   *
.*                                      BYTE OF REGISTER              *
.*       SVC   94                       ISSUE SVC                     *
.*                                                                    *
.**********************************************************************
         AIF   ('&A' EQ 'YES' OR '&A' EQ '').TIMEOUT
         AIF   ('&A' EQ 'NO').NOTMOUT
.ERROR   IHBERMAC 36,,&A
         MEXIT                          EXIT
.TIMEOUT ANOP
&NAME    LA    1,128                    LOAD FLAG BYTE
         SLL   1,24                     PUT ABOVE IN LEFT MOST OF REG
         AGO   .ENTRYCD                 GO TO ENTRYCD
.NOTMOUT ANOP
&NAME    SR    1,1                      PREPARE FLAG BYTE
.ENTRYCD LA    0,6                      LOAD ENTRY CODE
         SLL   0,24                     PUT ENTRY CODE IN LEFT MOST
.*                                      BYTE OF REGISTER
         SVC   94                       ISSUE SVC
         MEND
