         MACRO
&NAME    EXITRC
*          DATA SET EXITRC     AT LEVEL 001 AS OF 09/18/73
***********************************************************************
*                                                                     *
** EXIT WITH A RETURN CODE IN R15                                     *
*                                                                     *
***********************************************************************
*
&NAME    L     R13,4(R13)
         RETURN (14,12),T,RC=(15)
         MEND
