         SPACE 2
         MACRO
&NAME    MSG   &TEXT
         LCLA  &A
&A       SETA  K'&TEXT-2+4
&NAME    DC    H'&A',H'0',C&TEXT
         MEND
         SPACE 3
         MACRO
&NAME    CLEAR &FIELD
         LCLC  &L
&L       SETC  'L'''
&NAME    MVI   &FIELD,X'40'
         MVC   &FIELD+1(&L&FIELD-1),&FIELD
         MEND
         SPACE 3
         MACRO
&NAME    MOVE  &FIELD,&REGA,&REGL
&NAME    BCTR  &REGL,0             MINUS 1 FOR EXEC
         MVC   &FIELD.(0),0(&REGA) MOVE 1 BYTE OF FIELD
         EX    &REGL,*-6           EXEC FOR PROPER LENGTH
         MEND
         TITLE 'TSO PARTITIONED DATA SET DIRECTORY PROCESSOR '
***********************************************************************
*                                                                     *
* TITLE -      LISTM       TSO PARTITIONED DATASET DIRECTORY LISTER   *
*                                                                     *
*                                                                     *
* RELEASE -    1.1         LISTM RELEASE                              *
*                                                                     *
* AUTHOR -     MICHAEL LEE EMIGH                                      *
*              UNITED AIR LINES - EXOKF COMPUTER CENTER               *
*              1200 W. ALGONQUIN ROAD                                 *
*              ELK GROVE VILLAGE, ILLINOIS                            *
*              PHONE: 312-952-4371
*                                                                     *
*                                                                     *
* FUNCTION -   THE LISTM COMMAND ALLOWS THE TSO USER TO DISPLAY       *
*              PARTITIONED DATASET DIRECTORY INFORMATION AT THE TSO   *
*              TERMINAL.                                              *
*              THE FUNCTIONS PROVIDED ARE:                            *
*                  1) LIST THE MEMBERS OF A PDS.                      *
*                  2) LIST THE TTR INFORMATION IN THE PDS DIRECTORY.  *
*                  3) LIST THE USER DATA INFORMATION IN THE PDS       *
*                     DIRECTORY.                                      *
*                  4) DISPLAY THE NUMBER OF DIRECTORY MEMBERS,        *
*                     THE NUMBER OF DIRECTORY BLOCKS USED, AND        *
*                     THE NUMBER OF DIRECTORY BLOCKS ALLOCATED.       *
*                                                                     *
* INPUT -      STANDARD LINKAGE CONVENTIONS                           *
*              REGISTER 1 - ADDRESS OF COMMAND PROCESSOR PARAMETER    *
*                           LIST
*                                                                     *
*                                                                     *
* OUTPUT -     RETURN TO TERMINAL MONITOR PROGRAM                     *
*              REGISTER 15 CONTAINS RETURN CODE AS FOLLOWS            *
*                 0 - NO ERRORS ENCOUNTERED                           *
*                >0 - ERROR                                           *
*                                                                     *
*                                                                     *
* ATTRIBUTES - REENTERANT, REUSABLE, REFRESHABLE                      *
*                                                                     *
* NOTES -      THIS ROUTINE READS AN ENTIRE TRACK OF DIRECTORY BLOCKS *
*              PER EXCP.                                              *
*                                                                     *
*                                                                     *
*                                                                     *
***********************************************************************
         EJECT
R0       EQU   0                   REGISTER 0
R1       EQU   1                   REGISTER 1
R2       EQU   2                   REGISTER 2
R3       EQU   3                   REGISTER 3
R4       EQU   4                   REGISTER 4
R5       EQU   5                   REGISTER 5
RDBCT    EQU   6                   DIRECTORY BLOCK LOOP COUNTER
RBLK     EQU   7                   DIRECTORY BLOCK ADDRESS REGISTER
RPDSE    EQU   8                   DIRECTORY MEMBER ADDRESS REGISTER
RDIT     EQU   8                   DEVICE INTERFACE TABLE ADDR REG
RCPPL    EQU   8                   CPPL ADDR RESGISTER
RPDL     EQU   9                   PDL ADDR REGISTER
RLINK    EQU   10                  INTERNAL LINKAGE REGISTER
DATAR    EQU   11                  DATA AREA ADDRESS REGISTER
BASE     EQU   12                  BASE ADDRESS REGISTER
WORKR    EQU   13                  WORK AREA ADDRESS REGISTER
R14      EQU   14                  REGISTER 14
R15      EQU   15                  REGISTER 15
         SPACE 3
FQUOTE   EQU   128                 BIT TO INDICATE DSN IN QUOTES
FDATE    EQU   64                  BIT TO INDICATE DATE REQ
FDBUF    EQU   32                  BIT TO INDICATE DIRECTORY BUFFER
FALLOC   EQU   16                  BIT TO INDICATE ALLOCATION
FLIST    EQU   8                   BIT TO INDICATE LIST
FTTR     EQU   4                   BIT TO INDICATE TTR
FCRT     EQU   2                   BIT TO INDICATE CRT
FCOUNT   EQU   1                   BIT TO INDICATE COUNT
         SPACE 3
FF       EQU   X'FF'               HIGH VALUEUP
BLANK    EQU   C' '                SPACE
COMMA    EQU   C','                COMMA
ASTER    EQU   C'*'                ASTERIC
         SPACE 3
ACVT     EQU   16                  CVT ADDRESS
CVTPCNVT EQU   28                  CVT REL CONVERT ROUTINE ADDR
CVTPRLTV EQU   32                  CVT ABS CONVERT ROUTINE ADDR
OPENBIT  EQU   16                  BIT TO INDICATE DCB OPEN
         EJECT
LISTM    CSECT                     TSO PDS MEMBER LISTER ROUTINE
         SAVE  (14,12),T,*         SAVE CALLING REGISTERS
         LR    BASE,R15            LOAD BASE ADDRESS REGISTER
         USING LISTM,BASE          GIVE BASE ADDRESS TO ASSEMBLER
         LR    R2,WORKR            SAVE O/S SAVE AREA ADDR
         LR    RCPPL,R1            SAVE CPPL ADDRESS
         USING CPPL,RCPPL          SET CPPL DSECT
         LA    DATAR,DATAREA       LOAD DATA AREA ADDRESS
         USING DATAREA,DATAR       GIVE DATA AREA ADDR TO ASSEMBLER
         L     R4,WASIZE           LOAD WORK AREA SIZE
         GETMAIN R,LV=(R4)         GET MAIN STORAGE FOR WORK AREA
         LR    WORKR,R1            LOAD WORK AREA ADDR REG
         USING WORKAREA,WORKR      GIVE WORK AREA ADDR TO ASSEMBLER
         ST    WORKR,8(R2)         CHAIN NEW SAVE AREA
         LR    R1,R4               LENGTH OF WORK AREA
         LR    R0,WORKR            ADDRESS OF WORK AREA
         SLR   R15,R15             LOAD PAD BYTE FOR CLEAR
         MVCL  R0,R14              CLEAR WORK AREA
         ST    R2,SAVE+4           CHAIN OLD SAVE AREA
         LOAD  EPLOC=IKJPUTL       LOAD PUTLINE SERVICE ROUTINE
         ST    R0,APUTL            SAVE IKJPUTL EP ADDR
         LA    R1,PUTLPARM         LOAD PUTLINE PARM FIELD ADDR
         USING IOPL,R1             SET IOPL DSECT
         MVC   IOPLECT,CPPLECT     MOVE ECT ADDR TO IOPL
         MVC   IOPLUPT,CPPLUPT     MOVE UPT ADDR TO IOPL
         LA    R0,ATTNECB          LOAD ATTN ECB ADDR
         ST    R0,IOPLECB          STORE ECB ADDR IN IOPL
         EJECT
         LA    R1,PARMLIST         AREA FOR PARSE PARMS
         USING PPL,R1              SET PPL DSECT
         MVC   PPLUPT,CPPLUPT      MOVE UPT ADDR TO PPL
         MVC   PPLECT,CPPLECT      MOVE ECT ADDR TO PPL
         MVC   PPLCBUF,CPPLCBUF    MOVE CMD BUFFER ADDR TO PPL
         ST    WORKR,PPLUWA        MOVE WORK AREA ADDR FOR EXITS
         LA    R0,ATTNECB          LOAD ATTENTION ECB ADDR
         ST    R0,PPLECB           STORE IN PPL
         LA    R0,APDL            LOAD PDL ANSWER AREA ADDR
         ST    R0,PPLANS           STORE ADDR IN PPL
         MVC   PPLPCL,APCL         MOVE PCL ADDR TO PPL
         LINK  EPLOC=IKJPARS       INVOKE PARSE
         LTR   R15,R15             TEST PARSE RETURN CODE
         BZ    LISTM2              IF ZERO THEN OK
         CH    R15,=H'8'           ATTENTION ENTERED?
         BE    RETURN              YES, THEN RETURN
         MVC   MSGTEXT2,MSGPARSE   MOVE PARSE MESSAGE TO MSG LINE
         CVD   R15,DOUBLE          CONVERT RETURN CODE TO DECIMAL
         OI    DOUBLE+7,X'F0'      NEUTRALIZE SIGN
         UNPK  MSGTEXT2+21(2),DOUBLE UNPACK RETURN CODE TO MSG
         LA    R0,MSGTEXT2         LOAD MSG ADDRESS
         LA    R1,MSGCMDER         LOAD COMMAND SYSTEM ERROR MSG ADDR
         B     ERROR               GO PRINT ERROR MSG
         EJECT
LISTM2   DS    0H                  CHECK ********************
         L     RPDL,APDL           LOAD PDL ADDRESS
         USING PDL,RPDL            SET PDL DSECT
         TM    PDLLIST+1,1         TEST IF LIST SPECIFIED
         BZ    LISTM3              IF NOT SKIP FOLLOWING PROC
         OI    FLAGS,FLIST         INDICATE LIST SPECIFIED
         MVI   ESIZE+1,12          ENTRY SIZE
         SPACE 2
LISTM3   DS    0H                  CHECK COUNT KEYWORD
         TM    PDLCT+1,1           TEST IF COUNT SPECIFIED
         BZ    LISTM4              IF NOT SPECIFIED THEN SKIP
         OI    FLAGS,FCOUNT        INDICATE COUNT SPECIFIED
         SPACE 2
LISTM4   DS    0H                  *
         TM    FLAGS,FLIST+FCOUNT  TEST IF LIST OR COUNT SPECIFIED
         BZ    RETURN              IF NEITHER SPECIFIED THEN ERROR
         CLEAR DSN                 CLEAR DSNAME FIELD
         L     R3,PDLDSN           LOAD DSNAME ADDRESS
         LH    R4,PDLDSN+4         LOAD DSNAME FIELD LENGTH
         STH   R4,LDSN             SAVE DSNAME FIELD LENGTH
         MOVE  DSN,R3,R4           MOVE DSNAME
         TM    PDLDSN+6,64         TEST IF DSN IN QUOTES
         BZ    ALLOC               IF NOT GO ALLOCATE
         OI    FLAGS,FQUOTE        ELSE INDICATE DSN IN QUOTES
         EJECT
ALLOC    DS    0H                  ALLOC DSNAME
         LA    R1,DAIRPARM         LOAD DAPL LIST ADDRESS
         USING DAPL,R1             SET DAPL DSECT
         LA    R2,DAPPB            LOAD DAIR PB ADDRESS
         USING DAPB08,R2           SET DAP08 DSECT
         MVC   DAPPB(LDAP08),MDAP08 MOVE IN DAIR 08 PB
         MVC   DAPLUPT,CPPLUPT     MOVE UPT ADDR TO DAPL
         MVC   DAPLECT,CPPLECT     MOVE ECT ADDR TO DAPL
         MVC   DAPLPSCB,CPPLPSCB   MOVE PSCB ADDR TO DAPL
         LA    R0,ATTNECB          LOAD ATTN ECB ADDR
         ST    R0,DAPLECB          STORE ECB ADDR IN DAPL
         ST    R2,DAPLDAPB         STORE DAPB ADDR IN DAPL
         LA    R0,PDSN             LOAD DSNAME ADDRESS
         ST    R0,DA08PDSN         STORE DSN ADDR IN DAPB
         TM    FLAGS,FQUOTE        TEST FOR DSN IN QUOTES
         BO    ALLOC0              IF QUOTES THEN SKIP
         OI    DA08CTL,DA08UID     INDICATE USERID PREFIX
         SPACE 2
ALLOC0   DS    0H                  *
         TM    PDLDSN+22,128       TEST IF PASSWORD PRESENT
         BZ    ALLOC1              IF NOT THEN SKIP PSWD PROC
         L     R3,PDLDSN+16        LOAD PASSWORD ADDRESS
         LH    R4,PDLDSN+20        LOAD PASSWORD LENGTH
         MOVE  DA08PSWD,R3,R4      MOVE PASSWORD
         SPACE 2
ALLOC1   DS    0H                  *
         NC    PDLVOL(2),PDLVOL    TEST IF VOLUME ENTERED
         BZ    ALLOC2              IF NOT THEN SKIP VOL PROC
         L     R3,PDLVFLD1         LOAD VOLUME ADDRESS
         LH    R4,PDLVFLD1+4       LOAD VOLUME LENGTH
         MOVE  DA08SER,R3,R4       MOVE VOLUME SERIAL NUMBER
         SPACE 2
ALLOC2   DS    0H                  CHECK FOR UNIT
         NC    PDLUNIT(2),PDLUNIT  UNIT FIELD PRESENT?
         BZ    ALLOC3              NO, THEN SKIP CODE
         L     R3,PDLNFLD1         LOAD UNIT FIELD ADDRESS
         LH    R4,PDLNFLD1+4       LOAD UNIT FIELD LENGTH
         MOVE  DA08UNIT,R3,R4      MOVE UNIT FIELD
         EJECT
ALLOC3   DS    0H                  *
         LINK  EPLOC=IKJDAIR       LINK TO DAIR ROUTINE
         LTR   R15,R15             DAIR COMPLETE NORMALLY?
         BZ    ALLOC4              YES, THEN CONTINUE
         TM    FLAGS,FQUOTE        BEEN HERE BEFORE OR DSN IN QUOTES?
         BNZ   DAIRBAD             YES, THEN GO TO DAIR FAIL ROUTINE
         ST    R15,SAVE            SAVE RETURN CODE
         OI    FLAGS,FQUOTE        INDICATE PASSED THRU
         LA    R1,PARMLIST         LOAD PARM LIST ADDRESS
         USING DFPL,R1             SET DFPL DSECT
         MVC   DFPLUPT,CPPLUPT     MOVE UPT ADDRESS
         MVC   DFPLECT,CPPLECT     MOVE ECT ADDRESS
         LA    R0,ATTNECB          LOAD ATTENTION ECB ADDRESS
         ST    R0,DFPLECB          STORE IN DFPL
         LA    R2,DEFPB            LOAD PB ADDRESS
         ST    R2,DFPLDFPB         STORE IN DFPL
         USING DFPB,R2             SET DEFAULT PB DSECT
         LA    R0,PDSN             LOAD DSNAME ADDRESS
         ST    R0,DFPBDSN          STORE IN DFPB
         MVC   DFPBPSCB,CPPLPSCB   MOVE PSCB ADDRESS
         MVI   DFPBCODE,X'04'      SET FUNCTION CODE
         MVI   DFPBCNTL,DFPBUID    INDICATE TO PREFIX USERID
         LINK  ,SF=(E,DEFLINK)     LINK TO DEFAULT ROUTINE
         LTR   R15,R15             TEST FOR SUCCESSFUL COMPLETION
         BZ    ALLOC               GO RETRY DAIR
         L     R15,SAVE            RELOAD RETURN CODE
         B     DAIRBAD             GO TO DAIR FAIL ROUTINE
         EJECT
ALLOC4   DS    0H                  DAIR SUCCESSFUL
         USING DAPB08,R2           RESET DAPB08 ADDRESSIBILITY
         OI    FLAGS,FALLOC        INDICATE FILE ALLOCATED
         MVC   DCB,PDSDCB          MOVE IN PATTERN DCB
         LA    R0,DCB              LOAD DCB ADDRESS
         ST    R0,ADCB             STORE DCB ADDR IN OPEN/CLOSE LIST
         ST    R0,IOBDCBPT         STORE DCB ADDR IN IOB
         LA    R0,ECB              LOAD ECB ADDRESS
         ST    R0,IOBECBPT         STORE ECB ADDRESS IN IOB
         MVI   IOB,X'42'           INDICATE IOB UNRELATED
         MVI   ADCB,128            SET END OF LIST INDICATOR
         MVC   DCBDDNAM,DA08DDN    MOVE DDNAME TO DCB
         MVC   HKEY,HVALUE         SET HIGH KEY TO HIGH VALUE
         TM    PDLDSN+14,128       MEMBER NAME PRESENT
         BZ    ALLOC5              NO, THEN SKIP CODE
         L     R3,PDLDSN+8         LOAD MEMBER NAME ADDRESS
         LH    R4,PDLDSN+12        LOAD MEMBER NAME LENGTH
         BCTR  R4,0                LENGTH MINUS 1 FOR EXECUTE
         MVC   LKEY(0),0(R3)       MOVE 1 BYTE
         EX    R4,*-6              EXECUTE FOR PROPER LENGTH
         MVC   HKEY(0),0(R3)       MOVE 1 BYTE
         EX    R4,*-6              EXECUTE FOR PROPER LENGTH
         SPACE 2
ALLOC5   DS    0H                  TEST FOR PO
         TM    DA08DSO,X'02'       TEST FOR PO ORGANIZATION
         BO    SETUP               IF PO GO SETUP
         SR    R0,R0               INDICATE NO SECOND LVL MSG
         LA    R1,MSGORG           LOAD ERROR MSG ADDR
         B     ERROR               GO WRITE ERROR MSG
         EJECT
SETUP    DS    0H                  EXECUTE MAIN PROCEDURE
         OPEN  ,MF=(E,ADCB)        OPEN DCB
         TM    DCBOFLGS,16         TEST FOR SUCCESSFUL OPEN
         BZ    OPENERR             IF NOT OPEN THEN ERROR
         LA    R0,CTCP             LOAD COUNT CHANNEL PGM ADDR
         ST    R0,IOBSTART         STORE CP ADDR IN IOB
         LA    R0,CCHHR2+3         LOAD CCHHR2 ADDR
         ST    R0,CCW2             STORE IN CHAN PGM
         LA    R0,CCW2             LOAD CCW2 ADDR
         ST    R0,CCW4             STORE IN CP FOR TIC
         LA    R0,CCHHR3+3         LOAD CCHHR3 ADDR
         ST    R0,CCW5             STORE IN CCW5
         LA    R0,CCW5             LOAD CCW5 ADDR
         ST    R0,CCW7             STORE IN CCW7
         OC    CTCP,ACHPGM         OR IN CMD AND LENGTH FIELDS
         LA    R0,256              LOAD TTR OF FIRST D. B.
         L     R1,DCBDEBAD         LOAD DEB ADDR FROM DCB
         LA    R2,IOBSEEK          LOAD IOB SEEK ADDRESS
         LR    R3,WORKR            SAVE WORK AREA ADDRESS
         STM   R4,WORKR,SAVE+20    SAVE CRITICAL REGISTERS
         L     R15,ACVT            LOAD CVT ADDRESS
         L     R15,CVTPCNVT(R15)   LOAD CONVERT ROUTINE ADDR
         BALR  R14,R15             LINK TO CONVERT ROUTINE
         LR    WORKR,R3            RELOAD WORK AREA REGISTER
         LM    R4,WORKR,SAVE+20    RELOAD CRITICAL REGISTERS
         MVC   DCBFDAD,IOBSEEK     MOVE SEEK ADDR TO DCB
         MVC   CCHHR1,IOBSEEK      MOVE SEEK ADDR TO CCHHR1
         MVC   CCHHR2,IOBSEEK      MOVE SEEK ADDR TO CCHHR2
         MVC   CCHHR3,IOBSEEK      MOVE SEEK ADDR TO CCHHR3
         EXCP  IOB                 START COUNT CHANNEL PGM
         TM    FLAGS,FLIST         TEST IF LIST SPECIFIED
         BZ    SETUP4              IF NOT THEN SKIP CODE
         NC    PDLLFLD1+6(2),PDLLFLD1+6 TEST FOR START MEMBER
         BZ    SETUP0              IF NOT THEN SKIP CODE
         XC    LKEY,LKEY           CLEAR LOW KEY
         L     R3,PDLLFLD1         LOAD MEMBER ADDR
         LH    R4,PDLLFLD1+4       LOAD MEMBER LENGTH
         MOVE  LKEY,R3,R4          MOVE MEMBER
         NC    PDLLFLD2+6(2),PDLLFLD2+6 TEST FOR END MEMBER
         BZ    SETUP0              IF NOT THEN SKIP CODE
         MVC   HKEY,HVALUE         SET HIGH KEY TO HIGH VALUE
         L     R3,PDLLFLD2         LOAD MEMBER ADDRESS
         LH    R4,PDLLFLD2+4       LOAD MEMBER LENGTH
         MOVE  HKEY,R3,R4          MOVE MEMBER
         EJECT
SETUP0   DS    0H                  *
         NC    PDLUSER(2),PDLUSER  TEST IF USER KEY SPEC.
         BZ    SETUP3              IF NOT PRESENT THEN SKIP CODE
         CLC   =H'2',PDLUSER       DATE SPECIFIED?
         BE    SETUP2              YES, THEN GO PROCESS DATE
         MVC   NUSER,=H'62'        MOVE IN DEFAULT
         NC    PDLUFLD1+6(2),PDLUFLD1+6 TEST IF BYTES PRESENT
         BZ    SETUP1              IF NOT PRESENT THEN SKIP CODE
         L     R3,PDLUFLD1         LOAD ADDR OF BYTES
         LH    R4,PDLUFLD1+4       LOAD FIELD LENGTH
         BCTR  R4,0                MINUS 1 FOR SETUP
         PACK  DOUBLE,0(0,R3)      PACK ONE BYTE
         EX    R4,*-6              EXECUTE FOR PROPER LENGTH
         CVB   R4,DOUBLE           CONVERT TO BINARY
         CH    R4,NUSER            MAKE SURE NOT TOO LONG
         BH    SETUP1              IF HIGH THEN USE DEFAULT
         STH   R4,NUSER            ELSE SAVE USER COUNT
         SPACE 2
SETUP1   DS    0H                  COMPUTE ENTRY SIZE
         LH    R1,NUSER            LOAD NUMBER OF USER BYTES
         SLL   R1,1                MULTIPLY BY 2
         AH    R1,ESIZE            ADD ENTRY SIZE
         LA    R1,15(R1)           INCREMENT FOR SPACES
         STH   R1,ESIZE            SAVE NEW ENTRY SIZE
         B     SETUP3              CONTINUE
         SPACE 2
SETUP2   DS    0H                  CHECK DATE PARAMETER
         LA    R1,7                LOAD DATE LENGTH
         AH    R1,ESIZE            ADD CURRENT ENTRY SIZE
         STH   R1,ESIZE            SAVE TOTAL ENTRY SIZE
         SPACE 2
SETUP3   DS    0H                  *
         NC    PDLTTR(2),PDLTTR    TEST IF TTR SPECIFIED
         BZ    SETUP4              IF NOT THEN SKIP CODE
         OI    FLAGS,FTTR          INDICATE TTR SPECIFIED
         LH    R1,ESIZE            LOAD ENTRY SIZE
         LA    R1,12(R1)           INCREMENT FOR TTR LENGTH
         STH   R1,ESIZE            SAVE NEW ENTRY SIZE
         SPACE 2
SETUP4   DS    0H                  *
         L     RDIT,DCBDVTBL       LOAD DEVICE TABLE ADDR
         USING DIT,RDIT            SET DIT DSECT
         LA    R2,264              LOAD D. B. AND KEY LENGTH
         TM    DITTFI,1            TEST FOR DEVICE TOLERANCE FACTOR
         BZ    SETUP5              IF NOT THEN SKIP TOLERANCE COMPUTE
         MH    R2,DITTF            MULTIPLY BY TOLERANCE FACTOR
         SRL   R2,9                SHIFT RESULT 9 BITS TO RIGHT
         EJECT
SETUP5   DS    0H                  *
         SR    R4,R4               CLEAR SCRATCH REGISTER
         SR    R5,R5               CLEAR SCRATCH REGISTER
         IC    R4,DITBO            INSERT NORMAL BLOCK OVERHEAD
         IC    R5,DITBOLB          INSERT LAST BLOCK OVERHEAD
         TM    DITTFI,8            TWO BYTES OF BLOCK OVERHEAD
         BZ    SETUP6              IF NOT THEN SKIP CODE
         LH    R4,DITBO            RELOAD BLOCK OVERHEAD
         LR    R5,R4               LAST BLOCK IS THE SAME
         SPACE 2
SETUP6   DS    0H                  CALCULATE EFFECTIVE BLOCK LENGTH
         AR    R4,R2               COMPUTE NORMAL EFF. BLOCK LENGTH
         AR    R5,R2               COMPUTE LAST EFF. BLOCK LENGTH
         SR    R2,R2               CLEAR SCRATCH REGISTER
         LH    R3,DITMTL           LOAD MAXIMUM TRACK LENGTH
         SR    R3,R5               MINUS EFF. LAST BLOCK LENGTH
         DR    R2,R4               DIVIDE REMAINDER BY EFF. BLK LENGTH
         LA    R3,1(R3)            ADD 1 FOR LAST BLOCK
         STH   R3,NDBT             STORE # D. B. PER TRACK
         STH   R3,NDBR             STORE # D. B. PER READ
         LA    R2,3(R3)            LOAD NUMBER OF CCWS REQUIRED
         SLL   R2,3                MULTIPLY BY CCW LENGTH
         SLL   R3,8                MULTIPLY BY D. B. LENGTH
         LA    R0,0(R2,R3)         COMPUTE BUFFER LENGTH
         STH   R0,DCBBUFL          SAVE BUFFER LENGTH IN DCB
         GETMAIN R,LV=(0)          GETMAIN FOR BUFFER
         ST    R1,DCBBUFCB         SAVE BUFFER ADDRESS IN DCB
         OI    FLAGS,FDBUF         INDICATE BUFFER OBTAINED
         LA    R2,0(R1,R2)         COMPUTE ADDR OF FIRST D. B.
         ST    R2,ADBLK            SAVE FIRST D. B. ADDR
         LH    R4,NDBT             LOAD DIRECTORY BLK COUNT
         MVC   0(8,R1),READHA      MOVE READ HA CCW TO CP AREA
         LA    R1,8(R1)            POINT TO NEXT CCW
         EJECT
SETUP7   DS    0H                  CCW CONSTRUCTION LOOP
         XC    0(8,R1),0(R1)       CLEAR CCW TO ZERO
         ST    R2,0(R1)            STORE D. B. ADDR IN CCW
         OC    0(8,R1),RDATA       OR IN REST OF CCW
         LA    R1,8(R1)            POINT TO NEXT CCW
         LA    R2,256(R2)          POINT TO NEXT D. B. BUFFER
         BCT   R4,SETUP7           IF MORE D. B. THEN REPEAT
         XC    0(8,R1),0(R1)       CLEAR CCW
         LA    R0,DCBFDAD+3        LOAD CCHHR ADDRESS IN DCBFDAD
         ST    R0,0(R1)            STORE CCHHR ADDR IN NEXT CCW
         OC    0(8,R1),RDCT        OR IN REST OF READ COUNT CCW
         GTSIZE
         LTR   R0,R0               TEST IF TERMINAL IS CRT
         BZ    SETUP8              IF NOT CRT THEN SKIP
         BCTR  R1,0                ELSE MINUS 1 FOR ATTR BYTE
         SPACE 2
SETUP8   DS    0H                  *
         CLEAR MSGTEXT1            CLEAR MSG LINE 1
         CH    R1,ESIZE            COMPARE TO ENTRY SIZE
         BNL   SETUP9              IF NOT LOW THEN SKIP CODE
         LH    R1,ESIZE            LOAD LINE SIZE
         SPACE 2
SETUP9   DS    0H                  *
         LA    R1,4(R1)            ADD MSG PREFIX LENGTH
         STH   R1,LSIZE            SAVE COMPUTED LINE SIZE
         XC    MSGTEXT1(4),MSGTEXT1 CLEAR MSG PREFIX
         MVC   MSGTEXT1(2),=H'8'   SET UP TO WRITE ONE BLANK LINE
         WAIT  ECB=ECB             WAIT FOR COUNT CP TO COMPLETE
         CLI   ECB,X'7F'           TEST FOR NORMAL COMPLETION
         BE    IOERR1              IF NORMAL THEN ERROR
         TM    IOBCSW+3,X'01'      SHOULD BE UNIT EXCEPTION
         BZ    IOERR1              IF NOT THEN ERROR
         NI    IOBFLAG1,X'FB'      RESET IOB ERROR FLAGS
         NI    DCBIFLGS,X'3F'      RESET DCB ERROR FLAGS
         BAL   RLINK,PUTLINE       WRITE A BLANK LINE
         L     R2,DCBBUFCB         LOAD BUFFER ADDRESS
         ST    R2,IOBSTART         STORE IN IOB
         EJECT
EXEC     DS    0H                  CHECK BEFORE READ A TRACK
         CLC   DCBFDAD+3(4),CCHHR2+3 TEST FOR LAST TRK
         BNE   EXEC0               IF NOT LAST TRACK SKIP CODE
         L     R2,DCBBUFCB         RELOAD BUFFER ADDRESS
         SR    R3,R3               CLEAR A SCRATCH REGISTER
         IC    R3,CCHHR2+7         INSERT NUMBER OF LAST D. B.
         STH   R3,NDBR             STORE COUNT FOR LATER USE
         SLL   R3,3                MULTIPLY BY LENGTH OF CCW
         LA    R1,0(R2,R3)         POINT LAST CCW
         MVI   4(R1),X'20'         RESET CCW COMMAND CHAIN FLAG
         SPACE 2
EXEC0    DS    0H                  ISSUE CHANNEL PROGRAM TO READ TRACK
         MVC   IOBSEEK(8),DCBFDAD  RESET IOB SEEK ADDRESS
         XC    ECB,ECB             CLEAR ECB
         EXCP  IOB                 START CHANNEL PGM
         LH    RDBCT,NDBR          LOAD NUMBER OF DIRECTORY READ
         L     RBLK,ADBLK          LOAD ADDRESS OF FIRST BLOCK
         WAIT  ECB=ECB             WAIT FOR CHANNEL PGM GO COMPLETE
         CLI   ECB,X'7F'           TEST FOR NORMAL COMPLETION
         BE    EXEC1               IF NORMAL THEN OK
         SR    R0,R0               INDICATE NO SECOND LVL MSG
         LA    R1,MSGDCPE          LOAD DIRECTORY CP ERR MSG
         B     ERROR               GO PRINT ERROR MSG
         USING DIRENTRY,RPDSE      SET DIRECTORY DSECT
         EJECT
EXEC1    DS    0H                  *
         LH    R2,0(RBLK)          LOAD D. B. LENGTH
         LA    R2,0(R2,RBLK)       POINT TO EOB
         ST    R2,EOBAD            SAVE EOB ADDRESS
         LA    RPDSE,2(RBLK)       POINT TO FIRST ENTRY
         SPACE 2
EXEC2    DS    0H                  PDS D. B. DEBLOCK LOOP
         CLC   NAME,HVALUE         LAST DIRECTORY ENTRY
         BE    COUNT               IF YES, THEN DONE
         LA    R1,1                LOAD MEMBER COUNT INCREMENT
         AH    R1,CTR              ADD PREVIOUS COUNT
         STH   R1,CTR              SAVE NEW COUNT
         TM    FLAGS,FLIST         TEST IF LIST SPECIFIED
         BZ    EXEC11              IF NOT SKIP CODE
         CLC   NAME,LKEY           MEMBER LESS THEN START MEMBER
         BL    EXEC11              IF LOW THEN SKIP IT
         CLC   NAME,HKEY           MEMBER GREATER THAN END MEMBER
         BH    EXEC10              IF HIGH THEN SKIP IT
         LH    R5,MSGTEXT1         LOAD NUMBER OF BYTES USED
         LR    R1,R5               LOAD OFFSET
         LA    R5,MSGTEXT1(R5)     POINT TO NEXT AREA
         AH    R1,ESIZE            ADD ENTRY SIZE
         CH    R1,LSIZE            COMPARE TO LINE LENGTH
         BNH   EXEC3               IF LOW THEN GO BUILD LINE
         BAL   RLINK,PUTLINE       GO PRINT LINE
         LH    R1,ESIZE            LOAD ENTRY SIZE
         LA    R1,4(R1)            ADD PREFIX LENGTH
         LA    R5,MSGTEXT1+4       POINT TO NEXT AREA
         SPACE 2
EXEC3    DS    0H                  *
         STH   R1,MSGTEXT1         STORE NEW LINE LENGTH
         USING LINE,R5             SET LINE DSECT
         MVC   LNAME,NAME          MOVE MEMBER NAME TO LINE
         TM    INDIC,128           TEST IF ALIAS
         BZ    EXEC4               IF NOT THEN SKIP CODE
         MVC   LALIAS,=C'-A'       MOVE IN ALIAS INDICATOR
         SPACE 2
EXEC4    DS    0H                  *
         LA    R5,LLTTR            POINT TO NEXT FIELD
         TM    FLAGS,FTTR          TTR SPECIFIED?
         BZ    EXEC5               IF NOT THEN SKIP CODE
         UNPK  UNPKA,TTR(5)        UNPK TTR AND IND
         TR    UNPKA,TRTBL-240     TRANSLATE
         MVC   LTTR,UNPKA          MOVE TTR TO LINE
         MVC   LCIND,UNPKA+6       MOVE IND TO LINE
         LA    R5,LLUSER           POINT TO NEXT FIELD
         EJECT
EXEC5    DS    0H                  PRINT USER DATA, IF ANY
         CLC   =H'2',PDLUSER       DATE REQUESTED?
         BE    EXEC9               YES, THEN GO PROCESS DATE
         CLC   =H'1',PDLUSER       USER DATA FIELD REQUESTED?
         BNE   EXEC11              NO, THEN SKIP CODE
         LA    R1,31               LOAD MASK
         IC    R2,INDIC            LOAD INDICATOR FIELD
         NR    R1,R2               STRIP OFF TTR AND FLAGS
         BZ    EXEC8               IF ZERO THEN NO USER DATA
         SLL   R1,1                CONVERT TO BYTES
         LA    R2,USERD            LOAD USER DATA FIELD ADDR
         CH    R1,NUSER            COMPARE NUMBER OF BYTES TO MAX
         BNH   EXEC6               IF NOT HIGH THEN USE NUMBER
         LH    R1,NUSER            LOAD MAXIMUM
         SPACE 2
EXEC6    DS    0H                  *
         UNPK  UNPKA,0(5,R2)       UNPACK 4 BYTES OF USER DATA
         TR    UNPKA,TRTBL-240     TRANSLATE
         CH    R1,=H'4'            MORE THAN 4 BYTES LEFT?
         BL    EXEC7               IF NOT THEN SKIP CODE
         MVC   LUSER,UNPKA         MORE USER DATA TO PRINT LINE
         LA    R5,LLNEXT           POINT TO NEXT FIELD
         LA    R2,4(R2)            POINT TO NEXT 4 USER DATA BYTES
         SH    R1,=H'4'            DECREMENT BYTES REMAINING
         BZ    EXEC8               IF NO MORE BYTES THEN DONE
         B     EXEC6               ELSE GO DO IT AGAIN
         SPACE 2
EXEC7    DS    0H                  *
         SLL   R1,1                MULTIPLY BY 2 FOR PRINT POSITIONS
         BCTR  R1,0                MINUS 1 FOR EXECUTE
         MVC   LUSER(0),UNPKA      MOVE 1 BYTE
         EX    R1,*-6              EXECUTE FOR PROPER LENGTH
         LA    R5,2(R1,R5)         POINT PAST LAST BYTE WRITTEN
         SPACE 2
EXEC8    DS    0H                  *
         LA    R1,MSGTEXT1         LOAD LINE START ADDR
         SR    R5,R1               COMPUTE REAL LINE SIZE
         STH   R5,MSGTEXT1         STORE IN MSG PREFIX
         BAL   RLINK,PUTLINE       LINK AND PRINT LINE
         B     EXEC11              GO ADVANCE TO NEXT BLOCK
         EJECT
EXEC9    DS    0H                  PROCESS DATE FIELD
         LA    R1,31               LOAD AND MASK
         IC    R2,INDIC            INSERT INDICATOR FIELD