         MACRO     USED BY DISASM  MVSMODS TAPE FILE 217
&NAME    SVLNK &REG1,&REG2,&REG3,&IND,&LV=
         GBLC  &EQU
         GBLC  &GM
         GBLC  &CSECT
         LCLC  &REGA
         AIF   (T'&NAME EQ 'O').NOCSECT
         AIF   ('&NAME' EQ '*').NOCSECT
&CSECT   SETC  '&NAME'
&CSECT   CSECT 
         AGO   .RST
.NOCSECT ANOP
&CSECT   SETC  '*'
         CSECT 
.RST     ANOP
         AIF   ('&EQU' EQ 'ON').NRQ
&EQU     SETC  'ON'
*
***REGISTER EQUATES***
*
R0       EQU   0
R1       EQU   1
R2       EQU   2
R3       EQU   3
R4       EQU   4
R5       EQU   5
R6       EQU   6
R7       EQU   7
R8       EQU   8
R9       EQU   9
R10      EQU   10
R11      EQU   11
R12      EQU   12
R13      EQU   13
R14      EQU   14
R15      EQU   15
.NRQ     ANOP
*
*******************  PROGRAM INITIALIZATION  *************************
*
         AIF   (T'&REG1 EQ 'O').NOREG
&REGA    SETC  '&REG1'
         AIF   (T'&REG2 EQ 'O').ONEREG
         USING &CSECT,&REGA,&REG2 
         AGO   .BYUSE
.NOREG   ANOP
&REGA    SETC  'R3'
.ONEREG  USING &CSECT,&REGA 
.BYUSE   ANOP
         STM   R14,R12,12(R13) :       STORE REGS IN HIGH SAVE AREA
         LR    &REGA,R15 
         AIF   (T'&REG2 EQ 'O').NOLA
         LA    &REG2,4095(&REGA) 
         LA    &REG2,1(&REG2) 
.NOLA    ANOP
         AIF   (T'&REG3 EQ 'O').NOLNK
         L     &REG3,0(R1) 
.NOLNK   ANOP
         AIF (T'&IND EQ 'O').GETIT
         CNOP  0,4
         BAL   R15,SAVEAREA+72 
SAVEAREA DS    18F 
         ST    R15,8(R13)
         ST    R13,SAVEAREA+4
         LR    R13,R15
         AGO   .NOSAVE
.GETIT   ANOP
         AIF   (T'&LV EQ 'O').GMD
&GM      SETC  '&LV'
         AGO   .DGM
.GMD     ANOP
&GM      SETC  '72'
.DGM     ANOP
*
***GET MAIN STORAGE FOR SAVE AREA***
*
         AIF   ('&GM' LT '4096').LA
         GETMAIN R,LV=&GM 
         AGO   .EGM
.LA      ANOP
         LA    R0,&GM                  GET &GM BYTES
         GETMAIN R,LV=(0)
.EGM     ANOP
*
***SET UP SAVE AREA POINTERS***
*
         ST    R1,8(R13) 
         ST    R13,4(R1) 
         LR    R13,R1 
         AIF   (T'&REG3  NE 'O').NOSAVE
         L     R1,4(R13) 
         L     R1,24(R1) 
.NOSAVE  ANOP
         AIF   ('&CSECT' EQ '*').EXIT
         B     *+12
         DC    CL8'&CSECT'  
.EXIT    ANOP
*
*********************  END INITIALIZATION  ***************************
*
         MEND
