         PRINT OFF
         MACRO
&NAME    INIT &BASE=3,&REGS=Y,&PATCH=3,&RENT=N,&SAVE=Y
         AIF   ((&BASE LT 13) AND (&BASE GT 1)).N020
         MNOTE 12,'INVALID BASE REGISTER'
         MEXIT
.N020    ANOP
         PUSH  PRINT
         PRINT ON,GEN
         EJECT
&SYSECT  CSECT
         USING *,15
         B     BEGIN
         DC    AL1(24)
         DC    CL8'&SYSECT'
         DC    CL16'-&SYSDATE-&SYSTIME'
         AIF   ('&RENT' EQ 'Y').N004
MYSAVE   DC    18F'-1'
.N004    ANOP
         AIF   ('&PATCH' EQ '0').N005
PATCH    DC    &PATCH.CL8'*PATCH*'
.N005    ANOP
         AIF   ('&REGS' EQ 'N').N030
         AIF   ('&REGS' EQ 'Y').N010
         MNOTE 4,'REGS OPERAND INVALID. Y SUBSTITUTED'
.N010    ANOP
R0       EQU   0
R1       EQU   1
R2       EQU   2
R3       EQU   3
R4       EQU   4
R5       EQU   5
R6       EQU   6
R7       EQU   7
R8       EQU   8
R9       EQU   9
R10      EQU   10
R11      EQU   11
R12      EQU   12
R13      EQU   13
R14      EQU   14
R15      EQU   15
.N030    ANOP
BEGIN    DS   0H
         STM   14,12,12(13)
         LR    &BASE,15
         DROP  15
         USING &SYSECT,&BASE
         AIF   ('&SAVE' EQ 'N').N003
         AIF   ('&RENT' EQ 'Y').N002
         AIF   ('&RENT' EQ 'N').N001
         MNOTE 4,'RENT OPERAND INVALID. N SUBSTITUTED'
.N001    ANOP
         ST    13,MYSAVE+4
         LR    15,13
         LA    13,MYSAVE
         ST    13,8(15)
         AGO   .N003
.N002    ANOP
         GETMAIN R,LV=72
         ST    13,4(1)
         ST    1,8(13)
         LR    13,1
.N003    ANOP
         POP   PRINT
         EJECT
         MEND
         PRINT ON
*  MODULE NAME:         VSAMLST4     (REL. 1.1  08/10/79)
*
*  MODULE DESCRIPTION:  VSAM CATALOG LIST UTILITY - DETAILS REPORT
*
*  RETURN LINKAGE:      RETURN (14,12),RC=0
*
*  LINKAGE TABLE:       NONE - SINGLE ENTRY
*
*  PARAMETERS:          R1 POINTS TO A PARAMETER LIST ALIGNED ON A
*                       FULL WORD BOUNDARY.
*                        WORD 1 - ADDRESS OF VSAM CATALOG NAME
*                        WORD 2 - ADDRESS OF CTLGPL-B
*                        WORD 3 - ADDRESS OF MSGFILE DCB
*                        WORD 4 - ADDRESS OF SORTIN DCB
*                        WORD 5 - ADDRESS OF WORK AREA 'B'
*
*  EXIT:                RC=00 - SUCCESSFUL
*
*  MODULE FUNCTION:     FOR EACH VSAM ENTRY SPECIFIED IN THE PARAMETER
*                       LIST, THIS MODULE FORMATS IT FOR THE VSAM
*                       VOLUME CONTENTS REPORT.  THE FORMATTED DATA
*                       WILL BE SORTED IN ASCENDING ORDER OF VOLUME
*                       SERIAL NUMBER AND THEN PRINTED VIA AN E15 SORT
*                       EXIT.  ONLY TYPES 'C', 'G' AND 'V' ARE
*                       PROCESSED BY THIS MODULE.
*
*  CALLER:              VSAMLST2
*
*  CALLS:               NONE
*
*  SYSTEMS SERVICES:    PUT (QSAM), SVC 26
*
*  MODULE ENVIRONMENT:  OS/VS1, OS/VS2
*                       NOTE - SEE DSECT UCBOB AT THE END OF SOURCE
*                       UCBVTOC HAS DIFFERENT OFFSETS IN VS1 AND MVS
         TITLE 'VSAMLST4 --- VSAM CATALOG LIST UTILITY DETAILS REPORTS'X
               ' DATA GENERATOR (2.2)'
*        *-----------------------------------*
*        *   R E G I S T E R   U S A G E S   *
*        *-----------------------------------*
*
*  R0  -  STANDARD LINKAGE
*  R1  -  STANDARD LINKAGE (ADDR OF PARM LIST) & TEMP WORK SPACE
*  R2  -  TEMP WORK SPACE
*  R3  -  TEMP WORK SPACE
*  R4  -  NOT USED
*  R5  -  NOT USED
*  R6  -  BASE REG FOR DSECT ETXDSCRP
*  R7  -  BASE REG FOR DSECT ETVOL
*  R8  -  BASE REG FOR DSECT NMDSECT, DSPDSCRP, DSCB4, DSCB5
*  R9  -  BASE REG FOR DSECT CTLGPLB
*  R10 -  BASE REG FOR DSECT TXVLCHR, TXDTAIL, TXEXTNT
*  R11 -  RETURN ADDR FOR SUBROUTINES
*  R12 -  BASE REG FOR CSECT VSAMLST4
*  R13 -  STANDARD LINKAGE (ADDR OF SAVE AREA)
*  R14 -  STANDARD LINKAGE (ADDR TO RETURN)
*  R15 -  STANDARD LINKAGE (ADDR OF ENTRY POINT & RETURN CODE)
         SPACE 3
VSAMLST4 CSECT
         INIT  BASE=12
***********************************************************************
*                                                                     *
*  2.2    DETAILS REPORT GENERATOR                                    *
*                                                                     *
*     FUNCTION:  IF TYPE 'V', SET VOLUME INFO'S FOR TITLES AND FREE   *
*                EXTENT INFO'S FOR TRACK ALLOCATION MAP.              *
*                IF TYPE 'C' OR 'G', FORMAT DETAIL INFO'S AND WRITE   *
*                IT OUT TO THE SORT INPUT DATA SET.                   *
*                                                                     *
*     ERRORS:  NONE                                                   *
*                                                                     *
***********************************************************************
         SPACE 3
VCL22    EQU   *
         MVC   PARM9422(20),0(R1)       SAVE 5 FULL WORDS PARM LIST
         LA    R10,LINE                 SET BASE REG FOR OUTPUT
         L     R9,ACTPL22               ADDR OF CTLGPL-B
         USING CTLGPLB,R9
         SPACE
         L     R1,CTGBAFL1              ADDR OF CTGFL-B1
         L     R1,20(,R1)               ADDR OF ENTRY TYPE
         MVC   ENTYPE,0(R1)             SAVE IT FOR CHECKING
         SR    R2,R2                    INDEX FOR BRANCH TABLE
         TRT   ENTYPE,RECTBL            SEE WHICH TYPE IT IS
         BZ    TYPE0                    TYPE 0 - UNDEFINED
         SPACE
         SLL   R2,2                     DISPLACEMENT OF BRANCH TABLE
RECTYP   B     RECTYP(R2)
         B     TYPE2                    TYPE 'C'
         B     TYPE2                    TYPE 'G'
         B     TYPE1                    TYPE 'V'
         EJECT
*        *******************************************************
*        *                                                     *
*        *  TYPE 1 - SET VOLUME CHAR'S AND FREE EXTENT INFO'S  *
*        *                                                     *
*        *******************************************************
         SPACE
TYPE1    EQU   *
         USING TXEXTNT,R10
         L     R1,CTGBAFL2              ADDR OF CTLGFL-B2
         L     R1,20(,R1)               ADDR OF ENTRY NAME
         ST    R1,CTGDENT
         MVC   CTGDCAT,CTGBCAT          ADDR OF CATACB
         MVC   CTGDWKB,AWORK22          ADDR OF WORK AREA 'B'
         MVC   CTGDPSWD,CTGBPSWD        ADDR OF PASSWORD
         SPACE
         LA    R1,CTLGPLD
         SVC   26
         SPACE
         LTR   R15,R15                  IS SVC SUCCESSFUL?
         BZ    SVCOK221                 YES - CONTINUE
         ABEND 221,DUMP
         SPACE
SVCOK221 EQU   *
         L     R1,CTLGFLD2+20           ADDR OF ENTNAME
         MVC   TXEVOLNO,0(R1)
         SPACE
         USING VOLDVCHR,R1
         L     R1,CTLGFLD3+20           ADDR OF VOLDVCHR
         MVC   TRKCYL,VOLDNTRK          SAVE TRK'S PER CYL
         DROP  R1
         SPACE
         MVC   VSFSNUM(6),ZERO          AND VSFSTRK & VSFSLGE
         MVC   OSFSNUM(8),ZERO          AND OSFSTRK & OSFSCYL & OSFSLGE
         EJECT
*        *------------------------------*
*        *  SET VSAM FREE SPACE INFO'S  *
*        *------------------------------*
         SPACE
SETVSFS  EQU   *
         USING DSPDSCRP,R8
         L     R0,CTLGFLD7+16           LENGTH OF DSPDSCRP(S)
         L     R8,CTLGFLD7+20           ADDR OF DSPDSCRP(S)
         AR    R0,R8                    ADDR OF END OF DSPDSCRP(S)
         ST    R0,EODSPX                UPPER LIMIT
         SPACE
NEXTDSPX EQU   *
         MVC   BEGINRCH,DSPXSTRT        GET THE BEGINNING ADDR IN CCHH
         LH    R1,BEGINCC               CYL OF BEGINNING ADDR
         MH    R1,TRKCYL                IN TRK'S
         AH    R1,BEGINHH               PLUS TRK OF BEGINNING ADDR
         STH   R1,BEGINTT               SAVE ITS RELATIVE TRACK ADDR
         SPACE
         MVC   TXELOTCH,DSPXSTRT        SET BEGINNING CCHH OF DSP EXT
         STH   R1,TXELOTRK              SET BEGINNING TT OF DSP EXT
         LH    R15,DSPTKEXT             LTH OF DSP EXT
         STH   R15,TXEXTLTH
         AR    R15,R1
         BCTR  R15,0                    UPPER = LOWER + LTH - 1
         STH   R15,TXEHITRK             SET ENDING TT OF DSP EXT
         SPACE
         LH    R0,TRKCYL                NO. OF TRK'S PER CYL
         SR    R14,R14
         DR    R14,R0                   CONVERT TT TO CCHH
         STH   R15,TXEHICC              CYL
         STH   R14,TXEHIHH              TRK
         MVC   TXERCKEY,ZERO            MAKE SURE THIS COMES FIRST
         MVI   TXEXTNM,X'00'            CLEAR EXT NAME
         MVC   TXEXTNM+1(L'TXEXTNM-1),TXEXTNM
         MVC   TXEXTNO,ZERO             EXT SEQ NO. (NOT USED)
         OI    TXERPTNO,X'80'           FOR REPORT 2
         SPACE
         L     R1,ASORT22               WRITE TO FILE SORTIN
         PUT   (1),LINE                 REPORT 2
         EJECT
*        *--------------------------------------*
*        *  SET VSAM FREE SPACE INFO'S - CONT.  *
*        *--------------------------------------*
         SPACE
         MVC   TXELOTCH,TXEHITCH        SET DUMMY EXT FOR END OF DSP
         MVC   TXERCKEY,FFFF            MAKE SURE THIS COMES LAST
         MVI   TXEXTNM,X'FF'            SET EXT NAME
         MVC   TXEXTNM+1(L'TXEXTNM-1),TXEXTNM
         MVC   TXELOTRK,TXEHITRK
         OI    TXERPTNO,X'80'           FOR REPORT 2
         SPACE
         L     R1,ASORT22               WRITE TO FILE SORTIN
         PUT   (1),LINE                 REPORT 2
         SPACE 2
         SR    R2,R2
         ICM   R2,3,DSPSMLTH            LTH OF RLC (RUN LENGTH CODE)
         LTR   R2,R2                    IS THERE A SPACE MAP?
         BZ    BUMPDSPX                 NO - BUMP TO NEXT DSPDSCRP
         CLC   DSPTUSED,DSPTKEXT        IS DATA SPACE ALL USED?
         BE    BUMPDSPX                 YES - NO FREE SPACE HERE
         SPACE
         LA    R7,DSPSMRLC              BEGINNING OF RLC
         MVC   TXEXTNM,VSFSNAM          * * *  VSAM FREE SPACE  * * *
         MVI   TXERCKEY+1,X'01'         ONLY DSP EXT HAS KEY X'0000'
         EJECT
*        *------------------------------*
*        *  DECODE THE SPACE MAP'S RLC  *
*        *------------------------------*
         SPACE
NEXTVSE  EQU   *
         SR    R3,R3
         CLI   0(R7),X'FA'              IS IT AN 1-BYTE RLC?
         BL    RLC1B1                   YES
RLC2B1   EQU   *
         ICM   R3,3,1(R7)               NO - IT'S A 2-BYTES RLC
         LA    R7,3(,R7)
         SH    R2,THREE
         B     USEDVSE                  USED VSAM EXT
RLC1B1   EQU   *
         IC    R3,0(,R7)                ONLY AN 1-BYTE RLC
         LA    R7,1(,R7)
         BCTR  R2,0
         SPACE
USEDVSE  EQU   *
         LH    R15,BEGINTT              BEGINNING OF EXTENT
         AR    R15,R3                   PLUS ITS LENGTH
         STH   R15,BEGINTT              FOR NEXT EXTENT
         LTR   R2,R2                    ARE THERE ANY MORE RLC'S?
         BZ    BUMPDSPX                 NO - PROCESS NEXT DSPDSCRP
         SPACE 2
         SR    R3,R3                    YES - IT MUST BE FOR FREE EXT
         CLI   0(R7),X'FA'              IS IT AN 1-BYTE RLC?
         BL    RLC1B2                   YES
RLC2B2   EQU   *
         ICM   R3,3,1(R7)               NO - IT'S A 2-BYTES RLC
         LA    R7,3(,R7)
         SH    R2,THREE
         B     FREEVSE                  FREE VSAM EXT
RLC1B2   EQU   *
         IC    R3,0(,R7)                ONLY AN 1-BYTE RLC
         LA    R7,1(,R7)
         BCTR  R2,0
         EJECT
*        *--------------------------------------*
*        *  FORMAT THE VSAM FREE SPACE EXTENTS  *
*        *--------------------------------------*
         SPACE
FREEVSE  EQU   *
         LH    R0,TRKCYL                NO. OF TRK'S PER CYL
         LH    R15,BEGINTT              BEGINNING ADDR IN RELATIVE TRK
         STH   R15,TXELOTRK
         SR    R14,R14
         DR    R14,R0                   CONVERT TT TO CCHH
         STH   R15,TXELOCC              CYL
         STH   R14,TXELOHH              TRK
         SPACE
         LH    R15,BEGINTT              BEGINNING OF EXTENT
         AR    R15,R3                   PLUS ITS LENGTH
         STH   R15,BEGINTT              FOR NEXT EXTENT
         BCTR  R15,0                    LESS ONE FOR THIS EXTENT'S END
         STH   R15,TXEHITRK
         SR    R14,R14
         DR    R14,R0                   CONVERT TT TO CCHH
         STH   R15,TXEHICC              CYL
         STH   R14,TXEHIHH              TRK
         SPACE
         LH    R1,VSFSNUM               SEQ NO. OF VSAM FREE EXT
         STH   R1,TXEXTNO
         LA    R1,1(,R1)                BUMP NO. OF VSAM FREE EXT'S
         STH   R1,VSFSNUM
         LH    R1,VSFSTRK               TOTAL NO. OF VSAM FREE TRK'S
         AR    R1,R3                    PLUS LENGTH OF THIS EXT
         STH   R1,VSFSTRK               BUMP TOTAL
         CH    R3,VSFSLGE               IS THIS THE LARGEST EXT SO FAR?
         BNH   NOTVSLGE                 NO - SKIP IT THEN
         STH   R3,VSFSLGE               YES - SWAP IT
         SPACE
NOTVSLGE EQU   *
         STH   R3,TXEXTLTH              LTH OF VSAM FREE EXT
         OI    TXERPTNO,X'80'           FOR REPORT 2
         EJECT
*        *-----------------------------------------*
*        *  WRITE OUT THE VSAM FREE SPACE EXTENTS  *
*        *-----------------------------------------*
         SPACE
         L     R1,ASORT22               WRITE TO FILE SORTIN
         PUT   (1),LINE                 REPORT 2
         SPACE
         LTR   R2,R2                    ARE THERE ANY MORE RLC'S?
         BNZ   NEXTVSE                  YES - PROCESS THEM
         SPACE 2
BUMPDSPX EQU   *
         SR    R0,R0
         ICM   R0,3,DSPSMLTH            BUMP PAST THE SPACE MAP
         LA    R8,DSPSMRLC              TO THE NEXT DSPDSCRP
         AR    R8,R0
         C     R8,EODSPX                IS IT STILL WITHIN LIMIT?
         BL    NEXTDSPX                 YES - KEEP ON GOING
         SPACE
         B     SETOSFS                  NO - ALL DONE WITH VSAM FREE SP
         DROP  R8
         SPACE 2
EODSPX   DC    F'-1'
         EJECT
*        *----------------------------*
*        *  SET OS FREE SPACE INFO'S  *
*        *----------------------------*
         SPACE
SETOSFS  EQU   *
         MVI   TXERCKEY+1,X'01'         ONLY DSP EXT HAS KEY '0000'
         SPACE
*        *-----------------------------------*
*        *  SEARCH THE UCB'S FOR THE VOLUME  *
*        *-----------------------------------*
         SPACE
         L     R2,16                    R2 = ADDR OF CVT
         L     R2,40(,R2)               R2 = ADDR OF UCB ADDR LIST
         USING UCBOB,R1
         SPACE
ADDRUCB  EQU   *
         LH    R1,0(,R2)                R1 = ADDR OF UCB
         CH    R1,FFFF                  IS THIS THE LAST ENTRY?
         BE    NOOSFS                   YES - NOT FOUND
         SPACE
         LTR   R1,R1                    IS THIS A NULL ENTRY?
         BZ    NEXTUCBP                 YES - NEXT UCB POINTER, PLEASE
         CLI   UCBTYP+2,X'20'           IS DEVICE TYPE DASD?
         BNE   NEXTUCBP                 NO - NEXT UCB POINTER, PLEASE
         TM    UCBSTAT,X'80'            IS DEVICE STATUS ON-LINE?
         BZ    NEXTUCBP                 NO - NEXT UCB POINTER, PLEASE
         CLC   UCBVOLI,TXEVOLNO         IS THIS THE RIGHT VOLUME?
         BE    UCBFOUND                 YES - STOP SEARCHING
         SPACE
NEXTUCBP EQU   *
         LA    R2,2(,R2)                R2 = ADDR OF NEXT UCB POINTER
         B     ADDRUCB                  LET'S DO IT AGAIN
         SPACE 2
UCBFOUND EQU   *
         MVC   VOLSTAB,UCBSTAB          SAVE VOLUME USE
         LH    R0,TRKCYL                NO. OF TRK'S PER CYL
         SR    R14,R14                  CONVERT TTRZ OF VTOC TO CCHHR
         LH    R15,UCBVTOC              R15 = TT OF TTRZ
         DR    R14,R0                   R14 = HH & R15 = CC
         STH   R15,F45CC
         STH   R14,F45HH
         MVC   F45R,UCBVTOC+2           R1 = R OF TTRZ
         ST    R10,F45VOLNO             SET VOLSER IN CAMLST
         SPACE
         DROP  R1
         EJECT
*        *---------------------------------------*
*        *  OBTAIN FMT 4 DSCB - SET VTOC EXTENT  *
*        *---------------------------------------*
         SPACE
FMT4     EQU   *
         USING DSCB4,R8
         LA    R8,F45DSCB               SET BASE REG FOR DSCB4 & DSCB5
         OBTAIN F45CMLST
         SPACE
         LTR   R15,R15                  IS OBTAIN SUCCESSFUL?
         BNZ   NOOSFS                   NO - SKIP ALL OS EXT'S
         CLI   DS4DSNAM,X'04'           MAKE SURE
         BNE   NOOSFS                   THIS IS A
         CLI   DS4IDFMT,X'F4'           VALID
         BNE   NOOSFS                   FMT 4 DSCB AND
         TM    DS4VTOCI,X'80'           IS THERE A VALID FMT 5 DSCB?
         BO    NOOSFS                   NO - EITHER NONE OR INVALID
         SPACE
         MVC   TXEXTNM,VTOCNAM          * * *  VTOC  * * *
         MVC   TXELOTCH,DS4VTLOR        LOW CCHH OF VTOC
         MVC   TXEHITCH,DS4VTUPR        HIGH CCHH OF VTOC
         SPACE
         DROP  R8
         EJECT
*        *----------------------------------------*
*        *  FORMAT AND WRITE OUT THE VTOC EXTENT  *
*        *----------------------------------------*
         SPACE
         LH    R2,TXELOCC               LOW CYL
         MH    R2,TRKCYL                TIMES TRK'S/CYL
         AH    R2,TXELOHH               PLUS LOW TRK
         STH   R2,TXELOTRK              LOWER LIMIT IN TRACKS
         SPACE
         LH    R3,TXEHICC               HIGH CYL
         MH    R3,TRKCYL                TIMES TRK'S/CYL
         AH    R3,TXEHIHH               PLUS HIGH TRK
         STH   R3,TXEHITRK              UPPER LIMIT IN TRACKS
         SPACE
         SR    R3,R2
         LA    R3,1(,R3)
         STH   R3,TXEXTLTH              TOTAL TRK'S = UPPER - LOWER + 1
         MVC   TXEXTNO,ZERO             EXT SEQ NO. = 0
         OI    TXERPTNO,X'80'           FOR REPORT 2
         L     R1,ASORT22               WRITE TO FILE SORTIN
         PUT   (1),LINE
         EJECT
*        *------------------------------------------*
*        *  OBTAIN FMT 5 DSCB - SET OS FREE EXTENT  *
*        *------------------------------------------*
         SPACE
         IC    R1,F45R                  1ST DSCB OF VTOC IS FMT 4 DSCB
         LA    R1,1(,R1)                2ND DSCB OF VTOC IS FMT 5 DSCB
         STC   R1,F45R                  GET READY TO OBTAIN
         SPACE
FMT5     EQU   *
         USING DSCB5,R8
         OBTAIN F45CMLST
         SPACE
         LTR   R15,R15                  IS OBTAIN SUCCESSFUL?
         BNZ   NOOSFS                   NO - SKIP ALL OS EXT'S
         CLI   DS5KEYID,X'05'           MAKE SURE
         BNE   NOOSFS                   THIS IS A
         CLI   DS5FMTID,X'F5'           VALID
         BNE   NOOSFS                   FMT 5 DSCB
         SPACE
         MVC   TXEXTNM,OSFSNAM          * * *  OS FREE SPACE  * * *
         LA    R7,DS5AVEXT              SKIP KEY IDENTIFICATION
         LA    R2,8                     PROCESS THE FIRST 8 EXTENTS
NXTF5EX1 EQU   *
         CLC   0(5,R7),ZERO             IS THIS A GOOD EXTENT?
         BE    LASTF5EX                 NO - WRAP IT UP THEN
         BAL   R11,FREEEXT              YES - PROCESS THIS FREE EXTENT
         LA    R7,5(,R7)                NEXT FREE EXTENT, PLEASE.
         BCT   R2,NXTF5EX1
         SPACE
         LA    R7,DS5MAVET              SKIP FMT 5 IDENTIFIER
         LA    R2,18                    PROCESS THE NEXT 18 EXTENTS
NXTF5EX2 EQU   *
         CLC   0(5,R7),ZERO             IS THIS A GOOD EXTENT?
         BE    LASTF5EX                 NO - WRAP IT UP THEN
         BAL   R11,FREEEXT              YES - PROCESS THIS FREE EXTENT
         LA    R7,5(,R7)                NEXT FREE EXTENT, PLEASE.
         BCT   R2,NXTF5EX2
         SPACE
LASTF5EX EQU   *
         CLC   DS5PTRDS,ZERO            IS THERE ANOTHER FMT 5 DSCB?
         BZ    SETVCHR                  NO - ALL DONE WITH OS FREE EXT
         SPACE
         MVC   F45CCHHR,DS5PTRDS        ADDR OF TNE NEXT FMT 5 DSCB
         B     FMT5                     DO IT AGAIN
         DROP  R8
         EJECT
*        *--------------------------------------*
*        *  OS FREE SPACE INFO'S NOT AVAILABLE  *
*        *--------------------------------------*
         SPACE
NOOSFS   EQU   *
         MVC   OSFSNUM,FFFF             OS SPACE INFO'S NOT AVAILABLE
         MVC   MSG01VL(L'TXEVOLNO),TXEVOLNO
         SPACE
         L     R1,AMSGF22               WRITE ERROR MESSAGE
         PUT   (1),MSG01
         SPACE
         B     SETVCHR                  SET VOL CHAR
         EJECT
*        *---------------------------------------*
*        *  PROCESS FREE EXTENT                  *
*        *  IN:   R7 = ADDR OF EXTENT            *
*        *  OUT:  WRITE OS FREE EXT TO REPORT 2  *
*        *---------------------------------------*
         SPACE
FREEEXT  EQU   *
         MVC   DFXEXT,0(R7)             ALIGN FREE EXTENT DESCRIPTOR
         LH    R1,OSFSNUM               SEQ NO. OF OS FREE EXT
         STH   R1,TXEXTNO
         LA    R1,1(,R1)                BUMP NO. OF OS FREE EXT'S
         STH   R1,OSFSNUM
         SPACE
         LH    R1,DFXCYL                NO. OF FREE CYL'S IN THIS EXT
         LR    R0,R1                    SAVE IT TO CALC LTH IN TRK'S
         AH    R1,OSFSCYL
         STH   R1,OSFSCYL               TOTAL NO. OF UNUSED CYL'S
         SPACE
         MH    R0,TRKCYL                UNUSED CYL'S IN TRK'S
         SR    R1,R1
         IC    R1,DFXTRK                ADDITIONAL TRK'S IF ANY
         AR    R1,R0
         STH   R1,TXEXTLTH              TOTAL NO. OF TRK'S IN THIS EXT
         CH    R1,OSFSLGE               IS THIS THE LARGEST EXT SO FAR?
         BNH   NOTOSLGE                 NO - SKIP IT THEN
         STH   R1,OSFSLGE               YES - SWAP IT
         SPACE
NOTOSLGE EQU   *
         AH    R1,OSFSTRK
         STH   R1,OSFSTRK               TOTAL NO. OF UNUSED TRK'S
         EJECT
*        *------------------------------------*
*        *  FORMAT THE OS FREE SPACE EXTENTS  *
*        *------------------------------------*
         SPACE
         LH    R0,TRKCYL                NO. OF TRK'S PER CYL
         LH    R15,DFXRTA               BEGINNING ADDR IN RELATIVE TRK
         STH   R15,TXELOTRK
         SR    R14,R14
         DR    R14,R0                   CONVERT TT TO CCHH
         STH   R15,TXELOCC              CYL
         STH   R14,TXELOHH              TRK
         SPACE
         LH    R15,DFXRTA               BEGINNING OF EXTENT
         AH    R15,TXEXTLTH             PLUS ITS LENGTH
         BCTR  R15,0                    LESS ONE FOR THIS EXTENT'S END
         STH   R15,TXEHITRK
         SR    R14,R14
         DR    R14,R0                   CONVERT TT TO CCHH
         STH   R15,TXEHICC              CYL
         STH   R14,TXEHIHH              TRK
         SPACE
         OI    TXERPTNO,X'80'           FOR REPORT 2
         L     R1,ASORT22               WRITE TO FILE SORTIN
         PUT   (1),LINE
         SPACE
         BR    R11                      RETURN
         EJECT
*        *-------------------------*
*        *  SET VOL CHAR'S INFO'S  *
*        *-------------------------*
         SPACE
SETVCHR  EQU   *
         DROP  R10
         USING TXVLCHR,R10
         MVC   TXVRCKEY,ZERO            CLEAR SORT KEY
         SR    R1,R1
         IC    R1,VOLSTAB               VOLUME USE (UCBSTAB)
         STH   R1,TXVOLUSE              FIRST BYTE NOT USED
         SPACE
         USING VOLDVCHR,R1
         L     R1,CTLGFLD3+20           ADDR OF VOLDVCHR
         MVC   TXVDVTYP,VOLDVTYP
         MVC   TXVCYLVL,VOLDNCYL
         MVC   TXVTRKCL,VOLDNTRK
         MVC   TXVBYTTK,VOLDNBYT
         DROP  R1
         SPACE
         L     R1,CTLGFLD6+20           ADDR OF NODSET
         MVC   TXVNODST,0(R1)
         L     R1,CTLGFLD5+20           ADDR OF NODSPACE
         MVC   TXVNODSP,0(R1)
         L     R1,CTLGFLD4+20           ADDR OF SYSEXTDS
         MVI   TXVSYSXT,X'00'
         MVC   TXVSYSXT+1(1),0(R1)
         SPACE
         L     R1,ACATN22               ADDR OF CATLG NAME
         MVC   TXVCATNM,0(R1)
         SPACE
         MVC   TXVVSEXT,VSFSNUM         NO. OF VSAM FREE EXT'S
         MVC   TXVVSTRK,VSFSTRK         NO. OF VSAM FREE TRK'S
         MVC   TXVVSLGE,VSFSLGE         LTH OF LARGEST VSAM FREE EXT
         SPACE
         MVC   TXVOSEXT,OSFSNUM         NO. OF OS FREE EXT'S
         MVC   TXVOSTRK,OSFSTRK         NO. OF OS FREE TRK'S
         MVC   TXVOSCYL,OSFSCYL         NO. OF OS FREE CYL'S
         MVC   TXVOSLGE,OSFSLGE         LTH OF LARGEST OS FREE EXT
         EJECT
*        *---------------------------------------------------*
*        *  WRITE OUT DETAIL VOL INFO'S & REPORT SEPARATORS  *
*        *---------------------------------------------------*
         SPACE
         L     R1,ASORT22
         PUT   (1),LINE                 FOR REPORT 1
         SPACE
         OI    TXVRPTNO,X'80'
         L     R1,ASORT22
         PUT   (1),LINE                 REPORT 2
         SPACE
         MVI   TXVRCKEY,X'FF'           LAST RECORD FOR REPORT 2
         MVC   TXVRCKEY+1(L'LINE-L'TXVVOLNO-1),TXVRCKEY
         L     R1,ASORT22
         PUT   (1),LINE                 REPORT 2
         SPACE
         NI    TXVRPTNO,X'7F'           LAST RECORD FOR REPORT 1
         L     R1,ASORT22
         PUT   (1),LINE                 REPORT 1
         SPACE
         MVI   LINE,X'00'               CLEAR LINE
         MVC   LINE+1(L'LINE-1),LINE
         B     GOHOME                   AND RETURN
         EJECT
*        *************************************************************
*        *                                                           *
*        *  TYPE 2 - SET DETAIL INFO'S FOR TYPE 'C' & 'G' & ASSOC'S  *
*        *                                                           *
*        *************************************************************
         SPACE
TYPE2    EQU  *
         DROP  R10
         USING TXDTAIL,R10
         MVC   CTGECAT,CTGBCAT          ADDR OF CATACB
         MVC   CTGEWKB,AWORK22          ADDR OF WORK AREA 'B'
         MVC   CTGEPSWD,CTGBPSWD        ADDR OF PASSWORD
         L     R1,RPT0KEY               SET KEY FOR FLD TXDRCKEY
         LA    R1,1(,R1)
         ST    R1,RPT0KEY
         SPACE
         SR    R1,R1
         STH   R1,RPT0VLN               RESET NO. OF VOL'S ALLOCATED
         MVI   RPT0VLS,X'40'            CLEAR ALL 16 VOL SERIAL NUMBERS
         MVC   RPT0VLS+1(16*L'RPT0VLS-1),RPT0VLS
         SPACE 2
         USING NMDSECT,R8
         L     R1,CTGBAFL4              ADDR OF CTLGFL-B4
         L     R0,16(,R1)               LENGTH OF NAMEDS(ES)
         L     R8,20(,R1)               ADDR OF NAMEDS(ES)
         AR    R0,R8                    ADDR OF END OF NAMEDS(ES)
         ST    R0,EONMDS                UPPER LIMIT
         SPACE
NEXTNMDS EQU   *
         LH    R1,RPT0SEQ               INCREMENT RPT0SEQ
         LA    R1,1(,R1)
         STH   R1,RPT0SEQ
         SPACE
         LA    R1,NMDSCIN               ADDR OF CI NUMBER
         ST    R1,CTGEENT               SET CTLGPL-E
         MVC   CTGERCTP,NMDSTYP         ENTRY TYPE
         SPACE
         CLI   NMDSTYP,C'D'             IS IT FOR A TYPE 'D' ENTRY?
         BE    SETVLXT                  YES - SET VOL'S & EXT'S
         CLI   NMDSTYP,C'I'             IS IT FOR A TYPE 'I' ENTRY?
         BE    SETVLXT                  YES - SET VOL'S & EXT'S
         SPACE
*        *--------------------------------------------------------*
*        *  ASSUMING THE ORDER OF NAMEDS AS FOLLOWS, D, I, G, R.  *
*        *  THE ENTVOL FLD'S OF TYPES 'D' AND 'I' DETERMINE THE   *
*        *  VOL'S W/ ALLOC FOR THE OTHER ENTRIES.                 *
*        *--------------------------------------------------------*
         EJECT
*        *----------------------------------------------------------*
*        *  NAMEDS OF ASSOCIATED ENTRY - NEITHER TYPE 'D' NOR 'I'   *
*        *  WRITE THIS ENTRY'S NAME AND TYPE FOR EACH VOL W/ ALLOC  *
*        *----------------------------------------------------------*
         SPACE
         LH    R2,RPT0VLN               NO. OF VOL'S W/ ALLOC
         LTR   R2,R2                    ARE THERE ANY VOL'S?
         BZ    GOHOME                   NO - QUIT FOR THIS 'C' OR 'G'
         SPACE
         LA    R3,RPT0VLS               1ST VOL W/ ALLOC
         MVI   CTGEFLDN,X'02'           ENTYPE & ENTNAME ONLY
         LA    R1,CTLGPLE
         SVC   26
         SPACE
         LTR   R15,R15                  IS SVC SUCCESSFUL?
         BZ    SVCOK222                 YES - CONTINUE
         ABEND 222,DUMP
         SPACE
SVCOK222 EQU   *
         MVI   TXDDSORG,X'FF'           INDICATE AN ASSOCIATED ENTRY
         L     R1,CTLGFLE1+20           ENTYPE
         MVC   TXDENTYP,0(R1)
         L     R1,CTLGFLE2+20           ENTNAME
         MVC   TXDENTNM,0(R1)
         MVC   TXDRPTNO(L'TXDRCKEY+L'TXDRCSEQ),RPT0KEY
         SPACE
NEXTNCG  EQU   *
         MVC   TXDVOLNO,0(R3)           VOLUME SERIAL NUMBER
         L     R1,ASORT22
         PUT   (1),LINE
         SPACE
         LA    R3,6(,R3)                NEXT VOLUME PLEASE
         BCT   R2,NEXTNCG               FOR THIS NON-'C' OR NON-'G' ENT
         SPACE
         B     BUMPNMDS                 NEXT NAMEDS FLD
         EJECT
*        *----------------------------------------------------*
*        *  NAMEDS OF TYPE 'D' & 'I' - NEED MORE THAN A NAME  *
*        *  SET INFO'S OF EXTENTS AND VOLUMES                 *
*        *----------------------------------------------------*
         SPACE
SETVLXT  EQU   *
         MVI   CTGEFLDN,X'09'           ALL THE INFO'S
         LA    R1,CTLGPLE
         SVC   26
         SPACE
         LTR   R15,R15                  IS SVC SUCCESSFUL?
         BZ    SVCOK223                 YES - CONTINUE