+-------------------% MVS/BDT Inquiry Command Interface +---------------
%Command ===>_ZCMD
+
+ MVS/BDT Command%===>_BDTCMD
+
+ Enter MVS/BDT Command or Enter Option:  1 - Inquiry
+                                         2 - Modify
+                                         3 - SNA Manager
+                                         4 - MVS/BDT Log Commands
+                                         5 - VLU/NODE Control
+                                         6 - Miscellaneous Commands
+
+ Enter Command Wait Time %===>_WT+       Wait time in seconds 0-59
+
_DEBUG
)INIT
 .CURSOR = BDTCMD
 &WT = TRANS(&WT ' ',10 *,*)
)PROC
 VER (&WT,PICT,NN)
 VER (&WT,RANGE,0,59)
 &OPT = TRUNC(&BDTCMD,1)
 IF (&OPT = 1,2,3,4,5,6)
    &ZSEL = TRANS(&OPT 1,'PANEL(BDTCMDI)'
                       2,'PANEL(BDTCMDF)'
                       3,'PANEL(BDTCMDS)'
                       4,'PANEL(BDTCMDL)'
                       5,'PANEL(BDTCMDV)'
                       6,'PANEL(BDTCMDM)'
                       )
    &OPT = PANEL
    &BDTCMD = &Z
 IF (&OPT ^= PANEL)
    VER (&BDTCMD,NONBLANK)
    &ZSEL = 'CMD(%BDTCMD &DEBUG)'
)END
