)ATTR DEFAULT(%+_)
      /*  % TYPE(TEXT) INTENS(HIGH)      defaults displayed for      */
      /*  + TYPE(TEXT) INTENS(LOW)       information only            */
      /*  _ TYPE(INPUT) INTENS(HIGH) CAPS(ON) JUST(LEFT)             */
  / TYPE(OUTPUT) INTENS(LOW) PAD(' ') JUST(LEFT)
  ! TYPE(INPUT) INTENS(LOW) PAD('''')
)BODY
%------------------- ISPF PDF Dataset Management Panel -----------------
%COMMAND ===>_OPT                                     +SCROLL ===>_AMT +
%
+Enter Selection Option:
+
%Option   Volume    DSN                                     Last Action
+
)MODEL
!Z      +/Z       +/Z                                    + /Z
)INIT
  &OPT = &Z
 .CURSOR = OPT
 .HELP = TFLIST
 &VARS = '(SELECT CLVOL CLDSN CLACT)'
 &AMT = PAGE
)END
