+------------------%Generalized Submit Panel+---------------------------
%Select Processing Option:%===>_OPT
+
%    E -+Edit the generated job
%    B -+Browse the generated job
%    S -+Submit the generated job
%    C -+Cancel without Submit
+
+    Dataset containing the generated job is:
%    DSN='&DSNX'
+
+
_DEBUG
)INIT
 .CURSOR = OPT
 &OPT = &Z
)PROC
   &SOPT=TRUNC(&OPT,1)
   VER (&SOPT,LIST,B,C,E,S)
)END
