%------------------- Determine Optimal Blksize  ------------------------
%COMMAND ===>_ZCMD
+
+
+
+Lrecl:    %====>_LRECL
+
+
)INIT
 .HELP   =  TOPTBLK
 .CURSOR =  LRECL
)PROC
 VER (&LRECL,NUM)
 &OPT = DOIT
 &SEL = TRANS(TRUNC(&OPT,' ')
              DOIT   ,'CMD(%OPTBLK) '
              ' '   ,' '
              *     ,?)
)END
