)ATTR
 @ TYPE(OUTPUT) INTENS(LOW)
)BODY
%------------ System Library Subscription Service ----------------------
+Enter Option:_OPT       +Add Sort Print Cancel Save or ID   %Scroll ===
%      Table:  &SLSS
+Selection options:  S - Select to Display/Change  D - Delete
+
+Sel  Manual #     TNL   Name
+
)MODEL
_Z+  @Z       -@Z @Z @Z @Z
)INIT
 .CURSOR = OPT
 .HELP = TSLSS
 &OPT = &Z
 &SELECT = &Z
 &VARS = '(SELECT MANID MANDASH TNL STATUS NAME)'
 &AMT = PAGE
)END
