         MACRO
&NAME    RWHOLE &TYPE
&NAME    DS    0H
         AIF   ('&TYPE' EQ '').OPRNER
         AIF   ('&TYPE' EQ 'PASSOFF').PWOFF
         AIF   ('&TYPE' EQ 'PASSON').PWON
         AIF   ('&TYPE' EQ 'AUTHON').AON
         AIF   ('&TYPE' EQ 'AUTHOFF').AOFF
         AGO   .OPRNER
.PWOFF   SR    1,1
         AGO   .GEN
.PWON    LA    1,12
         AGO   .GEN
.AON     ANOP
         LA    1,4
         AGO   .GEN
.AOFF    ANOP
         LA    1,8
         AGO   .GEN
.GEN     ANOP
         SVC   244            UNION INTL. INTERFACE RTN    *CDG 07/80*
         MEXIT
.OPRNER  ANOP
         MNOTE 8,'INVALID OPERAND FOR RWHOLE MACRO'
         MEXIT
         MEND
