CKDP     TITLE 'CHKDUMP - MVS DIRECT ACCESS SYSTEM DUMP CHECK PROGRAM'
*        FUNCTION - THIS PROGRAM WILL PRINT MVS DUMP STATUS INFORMATION
*        ON SYSPRINT AND IF A STARTED TASK IT WILL ALSO DISPLAY TITLES
*        ON THE STARTING CONSOLE.  ALL SYS1.DUMP00-09 ON DA VOLUMES
*        WILL BE CHECKED.  OPTIONALLY PARM='ALL' MAY BE SPECIFIED TO
*        SCAN ALL DD STATEMENTS.
*
*        EXECUTE PARMS -
*
*              ALL     - DISPLAY DUMP STATUS ON ALL DD STMTS PRESENT
*              COUNT   - COUNT RECORDS IN DUMP
*              DEBUG   - TERMINATE WITH DUMP
*              CONSOLE - DISPLAY ALL PRINT MSGS ON CONSOLE
*
*
*        INPUT -
*              DDNAME IEFRDER OR SYSUT1 IF PARM='ALL' NOT SPECIFIED
*              IF PARM='ALL' SPECIFIED ANY DDNAME EXCEPT THOSE STARTING
*              WITH SYS, JOBLIB, STEPLIB, OR PGM=*.
*              INPUT DEVICE MAY BE DISK OR TAPE.
*
*
*        OUTPUT -
*              ALL OUTPUT WILL BE ON SYSPRINT.
*              IF THIS A STARTED TASK ONLY TITLES WILL ALSO BE
*              DISPLAYED ON THE STARTING CONSOLE UNLESS CONSOLE IS
*              SPECIFIED.
*
*
*
*
*
*
*
         MACRO
&NAME    PUTMSG  &MSGAD
         AIF   ('&MSGAD' EQ '').ERR
&NAME    IHBINNRA  &MSGAD
         L     15,=V(MSGWTR) .     LOAD ENTRY POINT ADDRESS
         BALR  14,15 .             LINK TO MESSAGE WRITER ROUTINE
         MEXIT
.ERR     MNOTE 12,'***  MESSAGE ADDRESS IS MISSING'
         MEND
CHKDUMP  CSECT
         SAVE  (14,12),,CHKDUMP&SYSDATE&SYSTIME
         LR    R12,R15             LOAD PROGRAM BASE REG
         USING CHKDUMP,R12
         ST    R13,SAVEAREA+4
         LA    R15,R13
         LA    R15,SAVEAREA
         ST    R15,8(R13)
         LR    R13,R15
         MVI   CNTLFLAG,0          CLEAR DUMP CONTROL FLAG
         MVI   STRTFLAG,0          CLEAR START METHOD FLAG
         MVI   STOPFLAG,0          CLEAR STOP METHOD FLAG
*
*        CHECK EXECUTE PARMS
*
         L     R2,0(R1)            LOAD PARM ADDRESS
         LH    R3,0(R2)            LOAD PARM LENGTH
         LTR   R3,R3               ARE ANY PARMS PRESENT
         BZ    NOPARMS             IF NOT CONTINUE
         LA    R1,2(R2)            LOAD START OF PARM FIELD
         LA    R14,1               LOAD INCREMENT COUNT
         LA    R15,1(R3,R2)        LOAD END OF PARM FIELD ADDRESS
FOLDLOOP OI    0(R1),BLANK         FOLD LOWER CASE TO UPPER CASE
         BXLE  R1,R14,FOLDLOOP     LOOP THRU ALL PARM BYTES
         LA    R1,2(R2)            LOAD START OF PARM FIELD
         SPACE
PARMLOOP CLC   ALL,0(R1)           IS ALL DD STATMENTS SPECIFIED
         BE    SETALL              IF YES GO SET OPTION
         CLC   COUNT,0(R1)         IS COUNT SPECIFIED
         BE    SETCNT              IF YES GO SET OPTION
         CLC   CONSOLE,0(R1)       IS CONSOLE SPECIFIED
         BE    SETCON              IF YES GO SET OPTION
         CLC   DEBUG,0(R1)         IS DEBUG SPECIFIED
         BE    SETDEBUG            IF YES GO SET OPTION
NEXTPARM BXLE  R1,R14,PARMLOOP     LOOP THRU ALL PARMS
         B     NOPARMS             ALL PARMS COMPLETE
         SPACE
SETALL   LA    R1,3(R1)            BUMP OVER PARM
         OI    CNTLFLAG,ALLDUMP    SET ALL DD STMT OPTION
         B     NEXTPARM            GO LOOP THRU ALL PARMS
         SPACE
SETCNT   LA    R1,5(R1)            BUMP OVER PARM
         OI    CNTLFLAG,CNTREC     SET ABEND OPTION
         B     NEXTPARM            GO LOOP THRU ALL PARMS
         SPACE
SETCON   LA    R1,7(R1)            BUMP OVER PARM
         OI    CNTLFLAG,DISPCON    SET ABEND OPTION
         B     NEXTPARM            GO LOOP THRU ALL PARMS
         SPACE
SETDEBUG LA    R1,5(R1)            BUMP OVER PARM
         OI    STOPFLAG,DEBUGOPT   SET ABEND OPTION
         B     NEXTPARM            GO LOOP THRU ALL PARMS
NOPARMS  EQU   *
         SPACE
*        INITALIZE HEADING MSG
         SPACE
         CALL  CDATE,CALDATE       GET CURRENT DATE
         TIME  DEC                 GET TIME OF DAY
         ST    R0,WORK             STORE TIME FOR CONVERSION
         MVC   TIME,EDMASK2        LOAD EDIT MASK
         ED    TIME,WORK           EDIT TIME INTO MSG
         LM    R14,R15,TITLE1AD    LOAD TITLE POINTER ADDRESSES
         LA    R1,MSG1             LOAD TITLE ADDRESS
         ST    R1,0(R14)           UPDATE TITLE POINTER ADDRESS
         LA    R1,MSG2             LOAD TITLE ADDRESS
         ST    R1,0(R15)           UPDATE TITLE POINTER ADDRESS
         SPACE
*        GET JOBNAME & OPERATOR COMMUNICATION ADDRESSES
         SPACE
         EXTRACT TIOTAD,FIELDS=(TIOT,COMM,TJID)
         LA    R4,SYSUT1           LOAD DCB BASE REG
         LM    R5,R6,TIOTAD        LOAD TIOT & COM BASE REGS
         USING IHADCB,R4
         USING TIOT,R5
         USING COMSECT,R6
*
*        FIND METHOD OF EXECUTION
*
         L     R7,CIBADDR          LOAD CIB BASE REG
         LTR   R7,R7               IS A CIB PRESENT
         BZ    BATCHJOB            IF NOT THIS IS A BATCH JOB
         USING CIB,R7
STARTJOB MVI   STRTFLAG,STRTTASK   SET EXECUTION METHOD FLAG
         SR    R0,R0               ZERO CONSOLE ID REG
         IC    R0,CIBCONID         LOAD CONSOLE ID
         STC   R0,CONID            SAVE CONSOLE ID
         WTO   MF=(E,WTO1)         DISPLAY HEADING
         QEDIT ORIGIN=CIBADDR,BLOCK=CIB  FREE INITIAL CIB
         B     REFCOMP             GO GET DEVICE INFORMATION
*
BATCHJOB EQU   *
         L     R1,TSOTJID          LOAD TSO USER ID
         LTR   R1,R1               IS THIS A TSO FOREGROUND
         BZ    REFCOMP             IF NOT IT MUST BE A BATCH JOB
         MVI   STRTFLAG,STRTTSO    SET EXECUTION METHOD FLAG
REFCOMP  EQU   *
         SPACE
*        CHECK FOR SINGLE VOLUME OR ALL DD STMT SCAN
         SPACE
         TM    CNTLFLAG,ALLDUMP    IS ALL DD STMT SCAN SPECIFIED
         BZ    SINGVOL             IF NOT GO DISPLAY SINGLE VOLUME
         LA    R2,TIOENTRY         LOAD TIOT DD ENTRY BASE REG
         USING TIOENTRY,R2
         SPACE
TIOTLOOP CLI   TIOELNGH,0          IS THIS END OF TIOT
         BE    RETURN              IF YES ALL DONE
         ICM   R1,7,TIOEFSRT       LOAD & CHECK UCB ADDRESS
         BZ    TIOTNEXT            SKIP IF DUMMY OR TERMINAL
         CLI   TIOEDDNM,BLANK      IS DDNAME BLANK
         BE    TIOTNEXT            IF YES SKIP IT
         CLC   SYS,TIOEDDNM        IS THIS A SYSXXXXX DDNAME
         BE    TIOTNEXT            IF YES SKIP IT
         CLC   JOBLIB,TIOEDDNM     IS THIS JOBLIB ENTRY
         BE    TIOTNEXT            IF YES SKIP IT
         CLC   STEPLIB,TIOEDDNM    IS THIS STEPLIB ENTRY
         BE    TIOTNEXT            IF YES SKIP IT
         CLC   PGMKEY,TIOEDDNM     IS THIS PGM=*.DD ENTRY
         BE    TIOTNEXT            IF YES SKIP IT
         MVC   DCBDDNAM,TIOEDDNM   LOAD CURRENT DDNAME
         DEVTYPE DCBDDNAM,DEVCONS,DEVTAB   GET DEVICE DATA
         CLI   DEVCLASS,DISK       IS DEVICE DIRECT ACCESS
         BE    GETJFCB             IF YES GO READ JFCB
         CLI   DEVCLASS,TAPE       IS DEVICE TAPE
         BE    GETJFCB             IF YES GO READ JFCB
TIOTNEXT SR    R1,R1               ZERO LENGTH REG
         IC    R1,TIOELNGH         LOAD LENGTH OF CURRENT ENTRY
         AR    R2,R1               BUMP BASE TO NEXT ENTRY
         B     TIOTLOOP            LOOP THUR ALL TIOT ENTRIES
         SPACE
*        DISPLAY DUMP STATUS FOR SINGLE VOLUME
*        GET DEVICE INFORMATION
         SPACE
SINGVOL  MVC   DCBDDNAM,STDDDNAM   LOAD STANDARD DDNAME
         DEVTYPE DCBDDNAM,DEVCONS,DEVTAB   GET DEVICE DATA
         LTR   R15,R15             IS DD STMT PRESENT
         BNZ   SETOPTDD            IF NOT USE OPTIONAL DDNAME
         CLI   DEVCLASS,DISK       IS DEVICE DIRECT ACCESS
         BE    GETJFCB             IF YES GO READ JFCB
         CLI   DEVCLASS,TAPE       IS DEVICE TAPE
         BE    GETJFCB             IF YES GO READ JFCB
         SPACE
SETOPTDD EQU   *
         MVC   DCBDDNAM,OPTDDNAM   LOAD OPTIONAL DDNAME
         DEVTYPE DCBDDNAM,DEVCONS,DEVTAB   GET DEVICE DATA
         LTR   R15,R15             IS DD STMT PRESENT
         BNZ   BADOPEN             IF NOT QUIT
         CLI   DEVCLASS,DISK       IS DEVICE DIRECT ACCESS
         BE    GETJFCB             IF YES GO READ JFCB
         CLI   DEVCLASS,TAPE       IS DEVICE TAPE
         BNE   BADDEVT             IF NOT QUIT
         SPACE
GETJFCB  EQU   *
         RDJFCB  SYSUT1            READ JFCB TO GET VOLUME
         LTR   R15,R15             IS DD STMT PRESENT
         BNZ   BADOPEN             IF NOT QUIT
         OI    JFCBTSDM,JFCNWRIT   PREVENT JFCB WRITE BACK
         MVC   DUMPSER,JFCBVOLS    LOAD VOLUME SERIAL
         CLI   DEVCLASS,DISK       IS DEVICE DIRECT ACCESS
         BE    INITDISK            IF YES GO INITIALIZE FOR DISK DEVICE
         SPACE
INITTAPE LA    R11,1               SET TAPE FILE NUMBER
         B     TAPELOOP            GO CHECK TAPE DUMP FILES
         SPACE
INITDISK MVC   JFCBDSNM,DUMPNAME   CHANGE DSNAME TO 1ST DUMP DSN
         LA    R11,DUMPZERO        LOAD 1ST DUMP NUMBER
         SPACE
DISKLOOP EQU   *
         STC   R11,DUMPNUMB        SET DUMP NUMBER
         SPACE
GETDSCB  EQU   *
         OBTAIN  DUMPDSCB          IS DUMP DATA SET ON VOLUME
         LTR   R15,R15             WAS DATA SET FOUND
         BNZ   NEXTDUMP            IF NOT SKIP THIS DATA SET
         OI    CNTLFLAG,DUMPFLAG   SET DUMP FOUND FLAG
         B     OPEN                GO OPEN DUMP DCB
         SPACE
TAPELOOP STH   R11,JFCBFLSQ        UPDATE FILE SEQUENCE NUMBER
         SPACE
OPEN     EQU   *
         OPEN  SYSUT1,TYPE=J       OPEN DUMP DATA SET
         TM    DCBOFLGS,X'10'      DID DCB OPEN
         BZ    BADOPEN             IF NOT GET OUT
         NI    CNTLFLAG,F0         RESET ERROR FLAGS
         SR    R7,R7               ZERO RECORD COUNT
         LA    R10,5               LOAD MAX RECORD COUNT
         SPACE
RECLOOP  EQU   *
         CLI   DEVCLASS,DISK       IS DEVICE DISK
         BE    READREC             IF YES SKIP STIMER
         MVC   PRGDEBAD,DCBDEBA    MOVE DEB ADDR TO PURGE PARM
         SR    R15,R15             ZERO WORK REG
         ST    R15,PRGTCBAD        SET PURGE TCB ADDR TO ZERO
         L     R15,DCBIOBA         LOAD IOB PREFIX ADDR
         LA    R15,8(R15)          LOAD START OF REAL IOB
         ST    R15,PRGIOBAD        SAVE REAL IOB ADDR IN PURGE PARM
         STIMER  REAL,TIMEEXIT,BINTVL=IOTIME   START TAPE TIMER
         SPACE
READREC  GET   SYSUT1              READ DUMP RECORD
         LA    R7,1(R7)            BUMP RECORD COUNT
         LR    R8,R1               LOAD DUMP REC BASE REG
         USING PRDINPUT,R8
         CLI   DEVCLASS,DISK       IS DEVICE DISK
         BE    READCHK             IF YES SKIP TTIMER
         TTIMER  CANCEL            STOP TAPE TIMER
         SPACE
READCHK  TM    CNTLFLAG,RECERR     DID I/O ERROR OCCUR
         BO    BADFMT              IF YES ASSUME BAD FORMAT
         OI    CNTLFLAG,RECFLAG    SET RECORD READ FLAG
         SETON XADUMP             SET AS XA DUMP           *LBD 12/85*
         CLI   PRDHDRID,X'FE'     XA DUMP HEADER ?         *LBD 12/85*
         BE    XADMP1                                      *LBD 12/85*
         CLI   PRDHDRID,PRDHDR     IS THIS A HEADER RECORD
         BNE   NEXTREC             IF NOT SKIP THIS RECORD
         SETOF XADUMP             TURN OFF XA DUMP FLAG    *LBD 12/85*
XADMP1   DS    0H                                          *LBD 12/85*
         CLI   PRDRECID,PRDHDREC   IS THIS A HEADER RECORD
         BE    GOTHDR              IF YES GO DISPLAY TITLE/TIME/DATE
NEXTREC  BCT   R10,RECLOOP         GO READ NEXT RECORD
         SPACE
*        DISPLAY ERROR MSG FOR BAD DATA SET FORMAT
         SPACE
BADFMT   EQU   *
         CLI   DEVCLASS,TAPE       IS DEVICE TAPE
         BE    TAPECOMP            IF YES NO MORE DUMPS
         MVC   BDFMTSER,JFCBVOLS   LOAD VOLUME SERIAL
         STC   R11,BDFMTNO         SET DUMP NUMBER
         LA    R9,MSG5             LOAD MSG ADDRESS
         BAL   R10,DISPWTO         GO DISPLAY MSG
         B     CLOSE               GO CLOSE DCB
         SPACE
*        FORMAT & DISPLAY DUMP TITLE
         SPACE
GOTHDR   EQU   *
         CLI   DEVCLASS,DISK       IS DEVICE DIRECT ACCESS
         BE    DISKHDR             IF YES GO INITIALIZE FOR DISK DEVICE
TAPEHDR  STC   R11,DUMPNO          STORE FILE SEQUENCE NUMBER
         OI    DUMPNO,F0           CONVERT BINARY TO CHARACTER
         OI    CNTLFLAG,DUMPFLAG   SET DUMP FOUND FLAG
         B     CONVDATE            GO COMPLETE MSG
         SPACE
DISKHDR  STC   R11,DUMPNO          SET DUMP NUMBER
         SPACE
CONVDATE DS    0H
         IFON  XADUMP,TIMEXA                               *LBD 12/85*
         LA    R1,12(R8)           LOAD TOD TIME ADDR
         B     HTIME                                       *LBD 12/85*
TIMEXA   LA    R1,16(R8)          TIME ADDR FOR XA DUMP    *LBD 12/85*
HTIME    DS    0H                                          *LBD 12/85*
         CALL  TODDEC,((R1))       CONVERT TOD TO TIME & DATE
         STM   R0,R1,TIMEDATE      SAVE CONVERTED TIME & DATE
         CALL  CDATE,(DUMPDATE,TIMEDATE+5),VL  CONVERT DATE TO CALENDAR
         MVC   DUMPTIME,EDMASK2    LOAD EDIT MASK
         ED    DUMPTIME,TIMEDATE   EDIT TIME INTO MSG
         UNPK  DUMPASID(3),PRDASID+1  CONVERT ASID
         TR    DUMPASID,HEXTABLE   CONVERT ALPHA
         MVI   DUMPASID+2,BLANK    BLANK GARBAGE BYTE
         IFON  XADUMP,TITXA                                *LBD 12/85*
         MVC   DUMPMSG,20(R8)      MOVE PART OF TITLE TO MSG
         MVC   DUMPTY,=C'370'     SET AS 370 DUMP          *LBD 12/85*
         B     SKTIT                                       *LBD 12/85*
TITXA    MVC   DUMPMSG,32(R8)      MOVE XA TITLE           *LBD 12/85*
         MVC   DUMPTY,=CL3'XA'    SET AS XA DUMP           *LBD 12/85*
SKTIT    DS    0H                                          *LBD 12/85*
         LA    R9,MSG3             LOAD MSG ADDRESS
         LA    R1,M3-1             LOAD END OF MSG ADDRESS
EOTLOOP  CLI   0(R1),BLANK         IS THIS END OF TITLE
         BNE   TITLEEND            IF YES GET OUT OF LOOP
         BCT   R1,EOTLOOP          LOOP TILL END OF TITLE IS FOUND
TITLEEND SR    R1,R9               FIND TOTAL MSG LENGTH
         LA    R1,1(R1)            INCLUDE LAST BYTE
         STH   R1,MSG3             SET CORRECT MSG LENGTH
         BAL   R10,DISPWTO         GO DISPLAY MSG
         OI    CNTLFLAG,HDRFLAG    SET TITLE DISPLAYED FLAG
         SPACE
*        SEARCH FOR 1ST SUMDUMP RECORD
         SPACE
SDMPSTRT GET   SYSUT1              READ DUMP RECORD
         LA    R7,1(R7)            BUMP RECORD COUNT
         LR    R8,R1               LOAD DUMP REC BASE REG
         CLC   SDUMPKEY,PRDASID    IS THIS A SUMDUMP RECORD
         BNE   SDMPSTRT            IF NOT CONTINUE READING
         LA    R5,PRDDATA          LOAD START OF SUMDUMP LOGICAL REC
         USING SMDLR,R5
         OI    CNTLFLAG,SDMPFLAG   SET SUMDUMP FOUND FLAG
         LH    R3,DCBLRECL         LOAD TOTAL RECORD LENGTH
         LA    R3,0(R3,R8)         FIND END OF RECORD ADDRESS
         SPACE
*        LOOP THRU SUMDUMP LOGICAL RECORDS
         SPACE
SDMPLOOP LA    R1,SMDLRDAT         LOAD END OF HEADER ADDRESS
         CR    R1,R3               IS HEADER SPLIT BETWEEN RECS
         BH    PARTHDR             IF YES GO MOVE EACH PART
FULLHDR  MVC   SUMDHDR,SMDLRHDR    MOVE HEADER TO WORK AREA
         B     SDMPCHK             GO CHECK RECORD TYPE
PARTHDR  SR    R3,R5               FIND LENGTH OF 1ST HALF OF HDR
         BCTR  R3,0                DECREMENT FOR EX ISN
         EX    R3,HDRMOVE          MOVE 1ST HALF TO WORK AREA
         LA    R3,1(R3)            RESET LENGTH TO TRUE VALUE
         GET   SYSUT1              READ DUMP RECORD
         LA    R7,1(R7)            BUMP RECORD COUNT
         LR    R8,R1               LOAD DUMP REC BASE REG
         CLC   SDUMPKEY,PRDASID    IS THIS A SUMDUMP RECORD
         BNE   SDMPBAD             IF NOT QUIT
         LA    R1,SUMDHDR(R3)      FIND START OF 2ND HALF OF HDR
         MVC   0(16,R1),PRDDATA    MOVE MAX LENGTH OF 2ND HALF
         LA    R5,PRDDATA          LOAD START OF SUMDUMP LOGICAL REC
         SR    R5,R3               BACK UP BASE TO PSEUDO START
         LH    R3,DCBLRECL         LOAD TOTAL RECORD LENGTH
         LA    R3,0(R3,R8)         FIND END OF RECORD ADDRESS
         SPACE
*        FORMAT SUMDUMP RECORD DATA
         SPACE
SDMPCHK  CLI   SUMDID0,0           IS LOGICAL REC ID VALID
         BNE   SDMPBAD             IF NOT QUIT
         CLI   SUMDID1,SMDEOD      IS THIS LAST SUMDUMP RECORD
         BE    CNTCHK              IF YES ALL SUMDUMP RECORDS COMPLETE
         CLI   SUMDID1,SMDRTM2A    IS THIS THE RTM2 RECORD
         BE    SDMPRTM             IF YES GO FORMAT SELECTED RTM DATA
         CLI   SUMDID1,SMDASIDR    IS THIS THE IDENTIFICATION RECORD
         BNE   SDMPNEXT            IF YES ALL SUMDUMP RECORDS COMPLETE
         SPACE
*        MOVE IDENTIFICATION RECORD TO WORK AREA
         SPACE
SDMPJOB  L     R15,SUMDLNGH        LOAD DATA LENGTH
         CH    R15,MINJOBLN        IS RECORD LONG ENOUGH
         BL    SDMPNEXT            IF NOT SKIP IT
         LA    R1,SMDLRDAT(R15)    LOAD END OF RECORD ADDRESS
         CR    R1,R3               DOES RECORD SPAN DUMP RECORDS
         BH    PARTJOB             IF YES GO MOVE EACH PART
FULLJOB  MVC   SUMDJBID,SMDLRDAT   MOVE ID RECORD TO WORK AREA
         B     FMTJOB              GO FORMAT ID RECORD
PARTJOB  LA    R1,SMDLRDAT         LOAD START OF ID DATA
         SR    R3,R1               FIND PARTIAL LENGTH
         BCTR  R3,0                DECREMENT FOR EX ISN
         EX    R3,JOBMOVE          MOVE 1ST HALF OF ID RECORD
         LA    R3,1(R3)            CORRECT PARTIAL LENGTH
         GET   SYSUT1              READ DUMP RECORD
         LA    R7,1(R7)            BUMP RECORD COUNT
         LR    R8,R1               LOAD DUMP REC BASE REG
         CLC   SDUMPKEY,PRDASID    IS THIS A SUMDUMP RECORD
         BNE   SDMPBAD             IF NOT QUIT
         LA    R1,SUMDHDR(R3)      FIND START OF 2ND HALF OF HDR
         MVC   0(24,R1),PRDDATA    MOVE MAX LENGTH OF 2ND HALF
         LA    R5,PRDDATA          LOAD START OF SUMDUMP LOGICAL REC
         LA    R3,20(R3)           ADD HDR LENGTH
         SR    R5,R3               BACK UP BASE TO PSEUDO START
         LH    R3,DCBLRECL         LOAD TOTAL RECORD LENGTH
         LA    R3,0(R3,R8)         FIND END OF RECORD ADDRESS
         SPACE
*        FORMAT IDENTIFICATION RECORD
         SPACE
FMTJOB   MVC   JOBNAME,SUMDJOBN    MOVE JOBNAME OR USERID TO MSG
         UNPK  ASID(5),SUMDASID(3) SUMDUMP ASID
         TR    ASID,HEXTABLE       CONVERT ALPHA
         MVI   ASID+4,BLANK        BLANK GARBAGE BYTE
         MVC   STEPNAME,SUMDSTEP   MOVE STEPNAME/PROCSTEP TO MSG
         LA    R9,MSG10            LOAD MSG ADDRESS
         BAL   R10,DISPLAY         PRINT SUMDUMP JOBNAME & ASID
         B     SDMPNEXT            GO CHECK NEXT SUMDUMP REC
         SPACE
JOBMOVE  MVC   SUMDJOBN(0),SMDLRDAT  MOVE PARTIAL ID REC TO WORK AREA
         SPACE
*        MOVE RTM2 RECORD TO WORK AREA
         SPACE
SDMPRTM  L     R15,SUMDLNGH        LOAD DATA LENGTH
         CH    R15,MINRTMLN        IS RECORD LONG ENOUGH
         BL    SDMPNEXT            IF NOT SKIP IT
         LH    R15,MINRTMLN        LOAD LENGTH OF RECORD USED
         LA    R1,SMDLRDAT(R15)    LOAD END OF RECORD ADDRESS
         CR    R1,R3               DOES RECORD SPAN DUMP RECORDS
         BH    PARTRTM             IF YES GO MOVE EACH PART
FULLRTM  MVC   SUMDRTM,SMDLRDAT    MOVE RTM RECORD TO WORK AREA
         B     FMTRTM              GO FORMAT ID RECORD
PARTRTM  LA    R1,SMDLRDAT         LOAD START OF RTM DATA
         SR    R3,R1               FIND PARTIAL LENGTH
         BCTR  R3,0                DECREMENT FOR EX ISN
         EX    R3,RTMMOVE1         MOVE 1ST HALF OF RTM RECORD
         LA    R3,1(R3)            CORRECT PARTIAL LENGTH FOR 1ST HALF
         GET   SYSUT1              READ DUMP RECORD
         LA    R7,1(R7)            BUMP RECORD COUNT
         LR    R8,R1               LOAD DUMP REC BASE REG
         CLC   SDUMPKEY,PRDASID    IS THIS A SUMDUMP RECORD
         BNE   SDMPBAD             IF NOT QUIT
         LA    R1,SUMDRTM(R3)      FIND START OF 2ND HALF OF HDR
         LH    R15,MINRTMLN        LOAD DATA LENGTH USED
         SR    R15,R3              FIND 2ND PARTIAL LENGTH
         BCTR  R15,0               DECREMENT FOR EX ISN
         EX    R15,RTMMOVE2        MOVE 2ND HALF OF RTM RECORD
         LA    R5,PRDDATA          LOAD START OF SUMDUMP LOGICAL REC
         LA    R3,20(R3)           ADD HDR LENGTH TO 1ST HALF LENGTH
         SR    R5,R3               BACK UP BASE TO PSEUDO START
         LH    R3,DCBLRECL         LOAD TOTAL RECORD LENGTH
         LA    R3,0(R3,R8)         FIND END OF RECORD ADDRESS
         SPACE
*        FORMAT SELECTED DATA FROM RTM2 RECORD
         SPACE
FMTRTM   EQU   *
         SPACE
FMTPGM   CLI   SUMDPGM,BLANK       IS PROGRAM NAME PRESENT
         BNH   FMTABEND            IF NOT SKIP MSG
         MVC   PGMNAME,SUMDPGM     LOAD FAILING PROGRAM NAME
         UNPK  ENTRYPT(7),SUMDPGEP+1  CONVERT ENTRY POINT ADDR
         TR    ENTRYPT,HEXTABLE    CONVERT ALPHA
         LA    R9,MSG13            LOAD MSG ADDRESS
         BAL   R10,DISPLAY         PRINT SUMDUMP PSW MSG
         SPACE
FMTABEND UNPK  ABECODE(9),SUMDCODE(5)  CONVERT COMPLETION CODE
         TR    ABECODE,HEXTABLE    CONVERT ALPHA
         MVI   ABECODE+8,BLANK     BLANK GARBAGE BYTE
         UNPK  TCBAD(7),SUMDTCB+1  CONVERT TCB ADDRESS
         TR    TCBAD,HEXTABLE      CONVERT ALPHA
         MVI   TCBAD+6,BLANK       BLANK GARBAGE BYTE
         UNPK  RTMFLAGS(9),SUMDFLAG(5)  CONVERT REASON FLAGS
         TR    RTMFLAGS,HEXTABLE   CONVERT ALPHA
         LA    R9,MSG11            LOAD MSG ADDRESS
         BAL   R10,DISPLAY         PRINT SUMDUMP ABEND CODE MSG
         SPACE
FMTPSW   LA    R9,MSG12            LOAD MSG ADDRESS
         ICM   R1,15,SUMDPSW+8     IS A PSW PRESENT
         BZ    FMTREGS             IF NOT SKIP PSW MSG
         MVC   M12KEY,PSWKEY       MOVE LINE TYPE TO MSG
         UNPK  M12WD1(9),SUMDPSW+00(5) CONVERT PSW WORD 1
         UNPK  M12WD2(9),SUMDPSW+04(5) CONVERT PSW WORD 2
         UNPK  M12WD3(9),SUMDPSW+08(5) CONVERT PSW ICL & INTERUPT
         UNPK  M12WD4(9),SUMDPSW+12(5) CONVERT TRANSLATION ADDRESS
         TR    M12WD1(M12-M12WD1),HEXTABLE  CONVERT ALPHA
         MVI   M12WD1+8,BLANK      BLANK GARBAGE BYTE
         MVI   M12WD2+8,BLANK      BLANK GARBAGE BYTE
         MVI   M12WD3+8,BLANK      BLANK GARBAGE BYTE
         BAL   R10,DISPLAY         DISPLAY SUMDUMP PSW MSG
         SPACE
FMTREGS  MVC   M12KEY,REGKEY       MOVE LINE TYPE TO MSG
         UNPK  M12WD1(9),SUMDREGS+00(5) CONVERT REG 0
         UNPK  M12WD2(9),SUMDREGS+04(5) CONVERT REG 1
         UNPK  M12WD3(9),SUMDREGS+08(5) CONVERT REG 2
         UNPK  M12WD4(9),SUMDREGS+12(5) CONVERT REG 3
         TR    M12WD1(M12-M12WD1),HEXTABLE  CONVERT ALPHA
         MVI   M12WD1+8,BLANK      BLANK GARBAGE BYTE
         MVI   M12WD2+8,BLANK      BLANK GARBAGE BYTE
         MVI   M12WD3+8,BLANK      BLANK GARBAGE BYTE
         BAL   R10,DISPLAY         DISPLAY SUMDUMP REGS 0 - 3
         SPACE
         MVC   M12KEY,BLANKS       MOVE LINE TYPE TO MSG
         UNPK  M12WD1(9),SUMDREGS+16(5) CONVERT REG 4
         UNPK  M12WD2(9),SUMDREGS+20(5) CONVERT REG 5
         UNPK  M12WD3(9),SUMDREGS+24(5) CONVERT REG 6
         UNPK  M12WD4(9),SUMDREGS+28(5) CONVERT REG 7
         TR    M12WD1(M12-M12WD1),HEXTABLE  CONVERT ALPHA
         MVI   M12WD1+8,BLANK      BLANK GARBAGE BYTE
         MVI   M12WD2+8,BLANK      BLANK GARBAGE BYTE
         MVI   M12WD3+8,BLANK      BLANK GARBAGE BYTE
         BAL   R10,DISPLAY         DISPLAY SUMDUMP REGS 4 - 7
         SPACE
         UNPK  M12WD1(9),SUMDREGS+32(5) CONVERT REG 8
         UNPK  M12WD2(9),SUMDREGS+36(5) CONVERT REG 9
         UNPK  M12WD3(9),SUMDREGS+40(5) CONVERT REG 10
         UNPK  M12WD4(9),SUMDREGS+44(5) CONVERT REG 11
         TR    M12WD1(M12-M12WD1),HEXTABLE  CONVERT ALPHA
         MVI   M12WD1+8,BLANK      BLANK GARBAGE BYTE
         MVI   M12WD2+8,BLANK      BLANK GARBAGE BYTE
         MVI   M12WD3+8,BLANK      BLANK GARBAGE BYTE
         BAL   R10,DISPLAY         DISPLAY SUMDUMP REGS 8 - 11
         SPACE
         UNPK  M12WD1(9),SUMDREGS+48(5) CONVERT REG 12
         UNPK  M12WD2(9),SUMDREGS+52(5) CONVERT REG 13
         UNPK  M12WD3(9),SUMDREGS+56(5) CONVERT REG 14
         UNPK  M12WD4(9),SUMDREGS+60(5) CONVERT REG 15
         TR    M12WD1(M12-M12WD1),HEXTABLE  CONVERT ALPHA
         MVI   M12WD1+8,BLANK      BLANK GARBAGE BYTE
         MVI   M12WD2+8,BLANK      BLANK GARBAGE BYTE
         MVI   M12WD3+8,BLANK      BLANK GARBAGE BYTE
         BAL   R10,DISPLAY         DISPLAY SUMDUMP REGS 12 - 15
         B     SDMPNEXT            GO TO NEXT LOGICAL RECORD
         SPACE
RTMMOVE1 MVC   SUMDRTM(0),SMDLRDAT MOVE PART OF RTM REC TO WORK AREA
RTMMOVE2 MVC   0(0,R1),PRDDATA     MOVE PART OF RTM REC TO WORK AREA
         SPACE
*        GET NEXT SUMDUMP LOGICAL RECORD
         SPACE
SDMPNEXT LA    R1,SMDLRDAT         GET START OF CURRENT LOG REC DATA
         A     R1,SUMDLNGH         FIND START OF NEXT LOGICAL RECORD
         CR    R1,R3               IS NEXT LOG REC IN CURRENT DUMP REC
         BH    SDMPSPAN            IF NOT CUR LOG REC SPANS DUMP REC
         BE    SDMPNEW             IF EQUAL NEXT LOG REC = DUMP REC
         LR    R5,R1               UPDATE LOGICAL RECORD BASE REG
         B     SDMPLOOP            GO CHECK NEXT LOGICAL REC
SDMPNEW  GET   SYSUT1              READ DUMP RECORD
         LA    R7,1(R7)            BUMP RECORD COUNT
         LR    R8,R1               LOAD DUMP REC BASE REG
         LH    R3,DCBLRECL         LOAD TOTAL RECORD LENGTH
         LA    R3,0(R3,R8)         FIND END OF RECORD ADDRESS
         CLC   SDUMPKEY,PRDASID    IS THIS A SUMDUMP RECORD
         BNE   SDMPBAD             IF NOT QUIT
         LA    R5,PRDDATA          LOAD START OF SUMDUMP LOGICAL REC
         B     SDMPLOOP            GO CHECK NEXT LOGICAL REC
SDMPSPAN SR    R1,R3               FIND LENGTH REMAINING
         LR    R5,R1               COPY DATA LENGTH REMAINING
SDMPSPLP GET   SYSUT1              READ DUMP RECORD
         LA    R7,1(R7)            BUMP RECORD COUNT
         LR    R8,R1               LOAD DUMP REC BASE REG
         LH    R3,DCBLRECL         LOAD TOTAL RECORD LENGTH
         LA    R3,0(R3,R8)         FIND END OF RECORD ADDRESS
         CLC   SDUMPKEY,PRDASID    IS THIS A SUMDUMP RECORD
         BNE   SDMPBAD             IF NOT QUIT
         LA    R1,PRDDATA          GET START OF NEXT DUMP REC
         AR    R1,R5               FIND START OF NEXT LOGICAL RECORD
         CR    R1,R3               IS NEXT LOG REC IN CURRENT DUMP REC
         BH    SDMPSPNX            IF NOT GET NEXT DUMP REC
         BE    SDMPNEW             IF EQUAL NEXT LOG REC = DUMP REC
         LR    R5,R1               LOAD START OF SUMDUMP LOGICAL REC
         B     SDMPLOOP            GO CHECK NEXT LOGICAL REC
SDMPSPNX SH    R5,H4K              DECREMENT LENGTH FOR NEXT REC
         B     SDMPSPLP            GO GET NEXT DUMP REC FOR SPAN
         SPACE
HDRMOVE  MVC   SUMDHDR(0),SMDLRHDR  MOVE PARTIAL HDR TO WORK AREA
         SPACE
SDMPBAD  LA    R9,MSG15            LOAD MSG ADDRESS
         BAL   R10,DISPLAY         PRINT ERROR MSG
         SPACE
*        COUNT ALL REMAINING RECORDS IN DUMP IF SPECIFIED
         SPACE
CNTCHK   TM    CNTLFLAG,CNTREC     IS RECORD COUNTING SPECIFIED
         BZ    CLOSE               IF NOT GO CLOSE DCB
CNTLOOP  GET   SYSUT1              READ DUMP RECORD
         LA    R7,1(R7)            BUMP RECORD COUNT
         LR    R8,R1               LOAD DUMP REC BASE REG
         B     CNTLOOP             LOOP THUR ALL RECORDS
         SPACE
*        DISPLAY EMPTY DUMP UNLESS A RECORD WAS READ
         SPACE
UT1END   EQU   *
         CLI   DEVCLASS,TAPE       IS DEVICE TAPE
         BE    TAPECOMP            IF YES NO MORE DUMPS
         TM    CNTLFLAG,HDRFLAG    WAS TITLE DISPLAYED
         BO    CNTMSGCK            IF YES GO CHECK RECORD COUNT
         TM    CNTLFLAG,RECFLAG    WERE ANY RECORDS FOUND
         BO    BADFMT              IF YES ASSUME BAD FORMAT
EMPTYMSG MVC   EMPTYSER,JFCBVOLS   LOAD VOLUME SERIAL
         STC   R11,EMPTYNO         SET DUMP NUMBER
         LA    R9,MSG4             LOAD MSG ADDRESS
         BAL   R10,DISPWTO         GO DISPLAY MSG
         B     CLOSE               SKIP RECORD COUNT MSG
         SPACE
*        PRINT RECORDS IN DATA SET IF SPECIFIED
         SPACE
CNTMSGCK TM    CNTLFLAG,CNTREC     IS RECORD COUNTING SPECIFIED
         BZ    CLOSE               IF NOT SKIP MSG
         CVD   R7,WORK             CONVERT RECORD COUNT
         MVC   RECCNT,EDMASK1      LOAD EDIT MASK
         ED    RECCNT,WORK+5       EDIT RECORD COUNT INTO PRINT LINE
         LA    R9,MSG9             LOAD MSG ADDRESS
         BAL   R10,DISPLAY         DISPLAY RECORD COUNT
         SPACE
CLOSE    CLOSE (SYSUT1,LEAVE)      CLOSE DUMP DCB
         SPACE
         PUTMSG  MSG14             PRINT BLANK LINE
         SPACE
*        LOOP THRU ALL DUMPS ON VOLUME
         SPACE
NEXTDUMP CLI   DEVCLASS,TAPE       IS DEVICE TAPE
         BE    BUMPDUMP            IF YES GO BUMP FILE NUMBER
         CLI   DUMPNUMB,DUMPMAX    IS THIS LAST DUMP DATA SET
         BE    DUMPCOMP            IF YES ALL DUMP DATA SETS PROCESSED
BUMPDUMP LA    R11,1(R11)          BUMP DUMP OR FILE NUMBER
         SPACE
*        CHECK OPERATOR FOR STOP REQUEST
         SPACE
OPERCHK  EQU   *
         CLI   OPECB,0             DID OPERATOR REPLY
         BZ    NOSTOP              IF NOT CONTINUE TEST
         L     R7,CIBADDR          LOAD CIB BASE REG
         USING CIB,R7
STOPCHK  CLI   CIBVERB,CIBSTOP     WAS STOP COMMAND ISSUED
         BE    STOPJOB             IF YES SKIP REMAINING DUMPS