**** KERMIT-TSO VERSION 2.20
*****************************************************************
*  Changes made for Version 2.20  (April 1987)
*  1.  Addition of assembly option &LINMODE to allow selection
*      of NCP or NOTNCP option for tailoring ATOENCP and ETOANCP
*      translate tables for use with NCP and non-NCP systems.
*  2.  Addition of assembly option &WARN that allows the default
*      for the option WARNING to be set ON or OFF.
*  3.  Modifications to RECEIVE CSECT to provide support for
*      PDSs and quoted data set names when the file name is
*      sent from the other Kermit.
*  4.  Modifications to PDSCHK CSECT to correct problems when
*      doing multiple PDS member searches.
*  5.  Expand messages set to the other Kermit to 28 bytes from
*      original 20 bytes.  See label ERRTAB in CSECT PARMS.
*  6.  Renumber the source.
*****************************************************************
***  ART RICHARD's modified version of STEVE BLANKINSHIP's 2.10
**   All mods are commented with my initials...AJR
*****************************************************************
*  Changes made for Version 2.10C
*  1.  Support for V-BINARY file type.
*  2.  Inclusion of Steve Blankinship's changes through 4/1/87.
*      These changes commented with Steve's initials...SEB
*  3.  Change FINISH command to terminate Server mode, but not
*      exit Kermit (as per CMS, UNIX, etc.)
*  4.  Change max value of 32767 for BLKSIZE, etc. to 32760 as
*      per MVS.
*  5.  Add check to RECEIVE routine so that BLKSIZE is not larger
*      than tracksize of allocated device (ABEND002).
*  6.  Change default for file WARNING from off to ON.
*  7.  Shorten command keywords to their minimum unique prefix.
*****************************************************************
*  Changes made for Version 2.10B
*  1.  Support for RECFM=U
*****************************************************************
*  Changes made for Version 2.10A
*  1.  VTAM STTRAN translation replaced with ATOENCP and ETOANCP
*      translate tables.  Support for these tables also added.
*      (TDUMP, SET ATOENCP, SET ETOANCP)
*  2.  Fixed messages associated with BLKSIZE and LRECL.
*  3.  Added "?-style help" within SET command.
*  4.  Tried to make user interface resemble Kermit-CMS 3.10 as
*      much as practical.
*  5.  SHOW command now has default of ALL.
*****************************************************************
*        USER MACROS
         PRINT OFF
         MACRO
&NAME    CLRSCR &FILLCHR=NULL,&FSMODE=OFF
         AIF ('&FSMODE' EQ 'ON').FSON
&NAME    SR    R0,R0              TURN FSMODE OFF AT EXIT
         AGO   .GETFILL
.FSON    ANOP
&NAME    LA    R0,4               LEAVE FSMODE ON AT EXIT
.GETFILL ANOP
         AIF   ('&FILLCHR' EQ 'BLANK').FILLSP
         SR    R1,R1              SET FILL CHARACTER TO NULL
         AGO   .GOCLEAR
.FILLSP  ANOP
         LA    R1,4               SET FILL CHARACTER TO BLANK
.GOCLEAR ANOP
         L     R15,=A(CLRSCR)     GET CLEAR SCREEN ROUTINE ADDRESS
         BALR  R14,R15            GO CLEAR THE SCREEN
         MEND
         MACRO
&NAME    PUTCRSR &ROW=0,&COLUMN=0
         LCLC  &ROWVAL,&COLVAL
&ROWVAL  SETC  '0'
&COLVAL  SETC  '0'
         AIF   ('&COLUMN' EQ '0').RCINVAL
         AIF   ('&ROW' EQ '0').RCINVAL
         AGO   .ROWCOL
.RCINVAL MNOTE 8,'ROW AND COLUMN MUST BE SPECIFIED'
         MEXIT
.*
.ROWCOL  ANOP
         CNOP  0,4
         AIF   (K'&NAME EQ 0).NONAME
&NAME    DS    0F
.NONAME  ANOP
         AIF   ('&ROW'(1,1) EQ '(').REGROW
&ROWVAL  SETC  '&ROW'
         AGO   .SETCOL
.*
.REGROW  ANOP
         STH   &ROW,PC&SYSNDX.B   SAVE ROW VALUE
.*
.*
.SETCOL  ANOP
         AIF   ('&COLUMN'(1,1) EQ '(').REGCOL
&COLVAL  SETC  '&COLUMN'
         AGO   .GENREST
.*
.REGCOL  ANOP
         STH   &COLUMN,PC&SYSNDX.B+2  SAVE COLUMN VALUE
.GENREST ANOP
&NAME    BAL   1,PC&SYSNDX.A      PICK UP ADDRESS OF PARM LIST
PC&SYSNDX.B EQU *
         DC    AL2(&ROWVAL.)
         DC    AL2(&COLVAL.)
.*
PC&SYSNDX.A L     15,=A(PUTCRSR)     GET ADDRESS OF PUTCRSR ROUTINE
         BALR  14,15              GO DISPLAY MESSAGE
         MEND
         SPACE 3
         MACRO
&NAME    FULLSCR &MSG,&LEN,&ROW=0,&COLUMN=0
         LCLC  &ROWVAL,&COLVAL,&LENVAL
         LCLA  &MSGLEN
&MSGLEN  SETA  0
&ROWVAL  SETC  '0'
&COLVAL  SETC  '0'
&LENVAL  SETC  '0'
         AIF   ('&COLUMN' EQ '0').RCINVAL
         AIF   ('&ROW' EQ '0').RCINVAL
         AGO   .ROWCOL
.RCINVAL MNOTE 8,'ROW AND COLUMN MUST BE SPECIFIED'
         MEXIT
.*
.ROWCOL  ANOP
         CNOP  0,4
         AIF   ('&MSG'(1,1) NE '''').MSGADDR
&NAME    LA    15,FS&SYSNDX.C     GET ADDRESS OF MESSAGE
         ST    15,FS&SYSNDX.B     PUT INTO PARM LIST
         AGO   .SETROW
.MSGADDR ANOP
&NAME    LA    15,&MSG            GET ADDRESS OF MESSAGE
         ST    15,FS&SYSNDX.B     PUT INTO PARM LIST
.*
.SETROW  ANOP
         AIF   ('&ROW'(1,1) EQ '(').REGROW
&ROWVAL  SETC  '&ROW'
         AGO   .SETCOL
.*
.REGROW  ANOP
         STH   &ROW,FS&SYSNDX.B+8 SAVE ROW VALUE
.*
.*
.SETCOL  ANOP
         AIF   ('&COLUMN'(1,1) EQ '(').REGCOL
&COLVAL  SETC  '&COLUMN'
         AGO   .CHKLEN
.*
.REGCOL  ANOP
         STH   &COLUMN,FS&SYSNDX.B+10 SAVE COLUMN VALUE
.CHKLEN  ANOP
         AIF   (K'&LEN NE 0).DOLEN
         AIF   ('&MSG'(1,1) NE '''').NEEDLEN
&MSGLEN  SETA  K'&MSG-2
&LENVAL  SETC  '&MSGLEN'
         AGO   .GENREST
.NEEDLEN ANOP
         MNOTE *,'MESSAGE LENGTH IS REQUIRED'
         MEXIT
.*
.DOLEN   ANOP
         AIF   ('&LEN'(1,1) EQ '(').LENCOL
&LENVAL  SETC  '&LEN'
         AGO   .GENREST
.*
.LENCOL  ANOP
         ST    &LEN,FS&SYSNDX.B+4 SAVE LENGTH VALUE
.GENREST ANOP
&NAME    BAL   1,FS&SYSNDX.A      PICK UP ADDRESS OF PARM LIST
FS&SYSNDX.B DS 0A
         DC    A(0)
         DC    A(&LENVAL.)
         DC    AL2(&ROWVAL.)
         DC    AL2(&COLVAL.)
         AIF   ('&MSG'(1,1) NE '''').GENBR
FS&SYSNDX.C DC C&MSG
.GENBR   ANOP
PT&SYSNDX.B DS 0H
.*
FS&SYSNDX.A L     15,=A(FULLSCR)     GET ADDRESS OF FULLSCR ROUTINE
         BALR  14,15              GO DISPLAY MESSAGE
         MEND
         SPACE 3
         MACRO
&NAME    BLOCKLET &LETTERS,&LEN
         AIF   ('&LETTERS'(1,1) EQ '''').LITMSG
         AIF   ('&LETTERS'(1,1) EQ '(').REGMSG
.*  ADDRESS OF LETTERS IS SUPPLIED
         AIF   (K'&LEN NE 0).ADRCNT
         MNOTE 8,'STRING LENGTH REQUIRED'
         MEXIT
.*
.ADRCNT  AIF   ('&LEN'(1,1) EQ '(').REGLEN
&NAME    LA    0,&LEN             GET LENGTH OF STRING
         AGO   .STRADR1
.*
.REGLEN  ANOP
&NAME    LR    0,&LEN             GET LENGTH OF STRING
.STRADR1 ANOP
         LA    1,&LETTERS         GET ADDRESS OF STRING
         AGO   .GOBLOCK
.*
.*
.LITMSG  ANOP
         AIF   (K'&LEN NE 0).LITCNT
         LA    0,L'PT&SYSNDX.A    GET LENGTH OF STRING
         AGO   .GENMSG
.*
.LITCNT  AIF   ('&LEN'(1,1) EQ '(').LITREGL
&NAME    LA    0,&LEN             GET LENGTH OF STRING
         AGO   .GENMSG
.*
.LITREGL ANOP
&NAME    LR    0,&LEN             GET LENGTH OF STRING
.GENMSG  ANOP
         LA    1,PT&SYSNDX.A      GET ADDRESS OF STRING
         B     PT&SYSNDX.B
PT&SYSNDX.A DC C&LETTERS
PT&SYSNDX.B DS 0H
         AGO   .GOBLOCK
.*
.*
.REGMSG  ANOP
         AIF   (K'&LEN NE 0).REGCNT
         MNOTE 8,'STRING LENGTH REQUIRED'
         MEXIT
.*
.REGCNT  AIF   ('&LEN'(1,1) EQ '(').REGREGL
&NAME    LA    0,&LEN             GET LENGTH OF STRING
         AGO   .STRADR2
.*
.REGREGL ANOP
&NAME    LR    0,&LEN             GET LENGTH OF STRING
.STRADR2 ANOP
         LA    1,&LETTERS         GET ADDRESS OF STRING
         AGO   .GOBLOCK
.*
.*
.GOBLOCK ANOP
         L     15,=A(BLOCKLET)    GET ADDRESS OF BLOCKLET ROUTINE
         BALR  14,15              GO DISPLAY BLOCK LETTERS
         MEND
         SPACE 3
*  MACRO OBTAINED FROM COLUMBIA UNIVERSITY KERMIT 3.0 WRITTEN BY
*  VACE KUNDAKCI.  MODIFIED BY STEVE BLANKINSHIP, TUCC
         MACRO
&LABEL   RET   &RANGE,&SKIP=
         GBLC  &RTN,&TYP,&EXT
         LCLC  &REG1,&REG2
         LCLA  &OFFSET
         AIF   ('&TYP' EQ 'SHORT').SHORT
&LABEL   L     13,4(,13)
         L     14,12(,13)
         AIF   ('&RANGE' NE '').STNRNG
&REG1    SETC  '0'
&REG2    SETC  '12'
&OFFSET  SETA  &REG1*4+20
         AGO   .GENLM
.STNRNG  ANOP
         AIF   (N'&RANGE LT 2).ONEREG
&REG1    SETC  '&RANGE(1)'
&REG2    SETC  '&RANGE(2)'
&OFFSET  SETA  &REG1*4+20
         AGO   .GENLM
.ONEREG  ANOP
&REG1    SETC  '&RANGE'
&REG2    SETC  '12'
&OFFSET  SETA  &REG1*4+20
.GENLM   ANOP
         LM    &REG1,&REG2,&OFFSET.(13)
         AGO   .SKIP
.SHORT   ANOP
&LABEL   LM    0,14,&RTN.SV
.SKIP    AIF   ('&SKIP' EQ '').BR14
         LTR   15,15
         B&SKIP 4(14)
         ICM   14,B'1111',0(14)
.BR14    BR    14
         MEND
         SPACE 3
*  MACRO OBTAINED FROM COLUMBIA UNIVERSITY KERMIT 3.0 WRITTEN BY
*  VACE KUNDAKCI.  MODIFIED BY STEVE BLANKINSHIP, TUCC
         MACRO
&LABEL   ENTER &TYPE,&EXTRA=,&MACGEN=
         GBLC  &RTN,&TYP,&EXT
         GBLC  &PRINT
         AIF   ('&MACGEN' EQ '').NOPRINT
&PRINT   SETC  '&MACGEN'
.NOPRINT ANOP
&RTN     SETC  '&LABEL'
         AIF   (K'&LABEL LE 6).LB1
&RTN     SETC  '&LABEL'(1,6)
.LB1     ANOP
&TYP     SETC  '&TYPE'
&EXT     SETC  '&EXTRA'
&LABEL   CSECT
         PUSH  PRINT
         PRINT &PRINT
         AIF   ('&TYPE' EQ 'SHORT').SHORT
         STM   14,12,12(13)
         BALR  12,0
         USING *,12
         AIF   ('&EXTRA' EQ '').NOEXT
         LA    &EXTRA,&LABEL+4096
         USING &LABEL+4096,&EXTRA
.NOEXT   LA    14,&RTN.SV
         ST    13,4(,14)
         ST    14,8(,13)
         LR    13,14
         MEXIT
.SHORT   USING &LABEL,15
         STM   0,14,&LABEL.SV
         LR    12,15
         DROP  15
         USING &LABEL,12
         MEND
         SPACE 3
*  MACRO OBTAINED FROM COLUMBIA UNIVERSITY KERMIT 3.0 WRITTEN BY
*  VACE KUNDAKCI.  MODIFIED BY STEVE BLANKINSHIP, TUCC
         MACRO
         EXIT
         GBLC  &RTN,&TYP,&EXT
&RTN.SV  DS    18F
         DROP  12
         AIF   ('&EXT' EQ '').NOEXT
         DROP  &EXT
.NOEXT   LTORG
         POP   PRINT
         MEND
         SPACE 3
         MACRO
&LABEL   UNALLOC &TYPE,&ADDR=,&NAME=
         AIF   ('&TYPE' NE 'DSNAME').CKDDN
&LABEL   SR    0,0                UNALLOCATE BY DSNAME
         AGO   .CKADDR
.CKDDN   AIF   ('&TYPE' NE 'DDNAME').BADTYPE
&LABEL   LA    0,4                UNALLOCATE BY DDNAME
         AGO   .CKADDR
.BADTYPE MNOTE 8,'INVALID "TYPE"'
         MEXIT
.*
.CKADDR  AIF   ('&ADDR' EQ '').CKNAME
         AIF   ('&NAME' NE '').CONFLCT
         AIF   ('&ADDR'(1,1) NE '(').ADDRADR
         LR    1,&ADDR            UNALLOC NAME AT THIS ADDRESS
         AGO   .GENLINK
.ADDRADR L     1,&ADDR            UNALLOC NAME AT THIS ADDRESS
         AGO   .GENLINK
.*
.CKNAME  AIF   ('&NAME' NE '').GONAME
         MNOTE 8,'NEITHER "ADDR" NOR "NAME" WAS SPECIFIED'
         MEXIT
.GONAME  AIF   ('&NAME'(1,1) NE '(').NAMENAM
         LR    1,&NAME             UNALLOC NAME
         AGO   .GENLINK
.NAMENAM LA    1,&NAME             UNALLOC NAME
         AGO   .GENLINK
.*
.CONFLCT MNOTE 8,'"ADDR" AND "NAME" ARE MUTUALLY EXCLUSIVE'
         MEXIT
.*
.GENLINK ANOP
         L     15,=A(DEALLOC)     GET ADDRESS OF DEALLOC ROUTINE
         BALR  14,15              GO DEALLOCATE
         MEND
         SPACE 3
         MACRO
&NAME    SETSEMI
&NAME    L     15,=A(SETSEMI)     GET ADDRESS OF SEMI-COLON ROUTINE
         BALR  14,15              GO INSERT SEMICOLON
         MEND
         SPACE 3
         MACRO
&NAME    PARSE &PCL,&ATTN=,&ERR=
&NAME    LA    1,PPLAREA          GET ADDRESS OF PPL
         L     0,=V(&PCL.)        GET ADDRESS OF PCL
         ST    0,12(,1)           PUT INTO THE PPL
         L     15,=A(PARSE)       GET ADDRESS OF PARSE SUBROUTINE
         BALR  14,15              GO PARSE
         B     *+4(15)            BRANCH ON RETURN CODE
         B     *+12               0  -  PARSE WAS SUCCESSFUL
         B     &ATTN              4  -  ATTENTION DURING PARSE
         B     &ERR               8  -  ERROR DURING PARSE
         MEND
         SPACE 3
         MACRO
&NAME    CHECKPDL &GOOD=,&BAD=
         LCLC  &BR,&GOTO
&BR      SETC  'BNE'              ASSUME GOOD IS SPECIFIED
&GOTO    SETC  '&GOOD'            ASSUME GOOD BRANCH
         AIF   ('&GOOD' NE '').GEN
&BR      SETC  'BE'               ASSUME BAD IS SPECIFIED
&GOTO    SETC  '&BAD'             ASSUME BAD BRANCH
         AIF   ('&BAD' NE '').GEN
         MNOTE 8,'"GOOD" OR "BAD" MUST BE SPECIFIED'
         MEXIT
.GEN     ANOP
&NAME    L    9,PDLADDR           GET PDL ADDRESS
         CL   9,=X'FF000000'      GOOD PDL?
         &BR  &GOTO
         MEND
         SPACE 3
         MACRO
&NAME    NUMTABS
         GBLA  &NUMTABS
         LCLA  &COUNT,&INDEX,&TOTAL
         LCLC  &TBSTRNG
&TOTAL   SETA  0
&INDEX   SETA  9
&NAME    DS    0X
.*
.*  LOOP HERE TO START AN NEW GENERATED "DC"
.*
.AGAIN   ANOP
&COUNT   SETA  0
&TBSTRNG SETC  'AL1'
.*
.*  LOOP HERE TO CONTINUE TO BUILD CURRENT "DC"
.*
.TBLOOP  ANOP
&TBSTRNG SETC  '&TBSTRNG'.'(&INDEX)'
&COUNT   SETA  &COUNT+1
&TOTAL   SETA  &TOTAL+1
         AIF   (&TOTAL GE &NUMTABS).LASTTB
         AIF   (&COUNT GE 6).PRTTAB
&INDEX   SETA  &INDEX+8
&TBSTRNG SETC  '&TBSTRNG'.',AL1'
         AGO   .TBLOOP
.*
.*  WHEN THE COUNT REACHES 6 GENERATE THE "DC", BUMP THE INDEX AND
.*  START WITH A NEW "DC"
.*
.PRTTAB  ANOP
         DC    &TBSTRNG
&INDEX   SETA  &INDEX+8
         AGO   .AGAIN
.*
.*  ALL THROUGH
.*
.LASTTB  ANOP
         DC    &TBSTRNG
         MEND
         SPACE 3
         MACRO
&NAME    WRTERM &MSG,&LEN,&DATA=NO
         LCLA  &MLEN
         AIF   ('&MSG'(1,1) EQ '''').LITMSG
         AIF   ('&MSG'(1,1) EQ '(').REGMSG
.*--------------------------------------------------------------------
.*
.*     MESSAGE ADDRESS SUPPLIED IN &MSG
.*
&NAME    LA    1,&MSG             GET ADDRESS OF MESSAGE
         AIF   (K'&LEN NE 0).ADRCNT
         MNOTE 8,'MESSAGE LENGTH REQUIRED'
         MEXIT
.*
.ADRCNT  ANOP
         AIF   ('&LEN'(1,1) EQ '(').REGLEN
.*
.*     ASSUME THAT LENGTH SUPPLIED IS A NUMBER
.*
         LA    0,&LEN             GET LENGTH OF MESSAGE
         AGO   .DOPUTL
.*
.*     LENGTH WAS SUPPLIED IN A REGISTER
.*
.REGLEN  ANOP
         LR    0,&LEN             GET LENGTH OF MESSAGE
         AGO   .DOPUTL
.*---------------------------------------------------------------------
.LITMSG  ANOP
&NAME    LA    1,PT&SYSNDX.A      GET ADDRESS OF MESSAGE
         AIF   (K'&LEN NE 0).LITCNT
         LA    0,L'PT&SYSNDX.A    GET LENGTH OF MESSAGE
         AGO   .GENMSG
.*
.*     LENGTH WAS SUPPLIED WITH A LITERAL MESSAGE
.*
.LITCNT  ANOP
         AIF   ('&LEN'(1,1) EQ '(').LITREGL
.*
.*     ASSUME LENGTH IS A NUMBER
.*
         LA    0,&LEN             GET LENGTH OF MESSAGE
         AGO   .GENMSG
.*
.*     LENGTH SUPPLIED IS IN A REGISTER
.*
.LITREGL ANOP
         LR    0,&LEN             GET LENGTH OF MESSAGE
.GENMSG  ANOP
         B     PT&SYSNDX.B
PT&SYSNDX.A DC C&MSG
PT&SYSNDX.B DS 0H
         AGO   .DOPUTL
.*---------------------------------------------------------------------
.REGMSG  ANOP
&NAME    LR    1,&MSG             GET MESSAGE ADDRESS
         AIF   (K'&LEN NE 0).REGCNT
         MNOTE *,'MESSAGE LENGTH MUST BE SUPPLIED'
         MEXIT
.REGCNT  AIF   ('&LEN'(1,1) EQ '(').REGREGL
.*
.*     ASSUME THE LENGTH IS A NUMBER
.*
         LA    0,&LEN             GET MESSAGE LENGTH
         AGO   .DOPUTL
.*
.*     LENGTH WAS SUPPLIED IN A REGISTER
.*
.REGREGL ANOP
         LR    0,&LEN             GET MESSAGE LENGTH
         AGO   .DOPUTL
.*---------------------------------------------------------------------
.DOPUTL  ANOP
         AIF   ('&DATA' NE 'YES').GENPUTL
         ICM   R0,8,=X'80'        INDICATE "DATA" PUTLINE
.GENPUTL ANOP
         L     15,=A(PUTLINE)     GET ADDRESS OF PUTLINE ROUTINE
         BALR  14,15              GO SEND MESSAGE TO TERMINAL
         MEND
         SPACE 3
         MACRO
&NAME    RDTERM &BUF,&LEN
         LCLA  &MLEN
         AIF   ('&BUF'(1,1) EQ '(').REGMSG
.*--------------------------------------------------------------------
.*
.*     MESSAGE ADDRESS SUPPLIED IN &BUF
.*
&NAME    LA    1,&BUF             GET ADDRESS OF BUFFER
         AIF   (K'&LEN NE 0).ADRCNT
         LA    0,L'&BUF           GET LENGTH OF BUFFER
         AGO   .DOGETL
.*
.ADRCNT  ANOP
         AIF   ('&LEN'(1,1) EQ '(').REGLEN
.*
.*     ASSUME THAT LENGTH SUPPLIED IS A NUMBER
.*
         LA    0,&LEN             GET LENGTH OF BUFFER
         AGO   .DOGETL
.*
.*     LENGTH WAS SUPPLIED IN A REGISTER
.*
.REGLEN  ANOP
         LR    0,&LEN             GET LENGTH OF BUFFER
         AGO   .DOGETL
.*---------------------------------------------------------------------
.REGMSG  ANOP
&NAME    LR    1,&BUF             GET BUFFER ADDRESS
         AIF   (K'&LEN NE 0).REGCNT
         MNOTE *,'BUFFER LENGTH MUST BE SUPPLIED'
         MEXIT
.REGCNT  AIF   ('&LEN'(1,1) EQ '(').REGREGL
.*
.*     ASSUME THE LENGTH IS A NUMBER
.*
         LA    0,&LEN             GET BUFFER LENGTH
         AGO   .DOGETL
.*
.*     LENGTH WAS SUPPLIED IN A REGISTER
.*
.REGREGL ANOP
         LR    0,&LEN             GET BUFFER LENGTH
         AGO   .DOGETL
.*---------------------------------------------------------------------
.DOGETL  ANOP
         L     15,=A(GETLINE)     GET ADDRESS OF GETLINE ROUTINE
         BALR  14,15              GO READ FROM TERMINAL
         MEND
         SPACE 3
         MACRO
&NAME    PROMPT &MSG,&LEN
         LCLA  &MLEN
         AIF   ('&MSG'(1,1) EQ '''').LITMSG
         AIF   ('&MSG'(1,1) EQ '(').REGMSG
.*--------------------------------------------------------------------
.*
.*     MESSAGE ADDRESS SUPPLIED IN &MSG
.*
&NAME    LA    1,&MSG             GET ADDRESS OF MESSAGE
         AIF   (K'&LEN NE 0).ADRCNT
         MNOTE 8,'MESSAGE LENGTH REQUIRED'
         MEXIT
.*
.ADRCNT  ANOP
         AIF   ('&LEN'(1,1) EQ '(').REGLEN
.*
.*     ASSUME THAT LENGTH SUPPLIED IS A NUMBER
.*
         LA    0,&LEN             GET LENGTH OF MESSAGE
         AGO   .DOPUTL
.*
.*     LENGTH WAS SUPPLIED IN A REGISTER
.*
.REGLEN  ANOP
         LR    0,&LEN             GET LENGTH OF MESSAGE
         AGO   .DOPUTL
.*---------------------------------------------------------------------
.LITMSG  ANOP
&NAME    LA    1,PT&SYSNDX.A      GET ADDRESS OF MESSAGE
         AIF   (K'&LEN NE 0).LITCNT
         LA    0,L'PT&SYSNDX.A    GET LENGTH OF MESSAGE
         AGO   .GENMSG
.*
.*     LENGTH WAS SUPPLIED WITH A LITERAL MESSAGE
.*
.LITCNT  ANOP
         AIF   ('&LEN'(1,1) EQ '(').LITREGL
.*
.*     ASSUME LENGTH IS A NUMBER
.*
         LA    0,&LEN             GET LENGTH OF MESSAGE
         AGO   .GENMSG
.*
.*     LENGTH SUPPLIED IS IN A REGISTER
.*
.LITREGL ANOP
         LR    0,&LEN             GET LENGTH OF MESSAGE
.GENMSG  ANOP
         B     PT&SYSNDX.B
PT&SYSNDX.A DC C&MSG
PT&SYSNDX.B DS 0H
         AGO   .DOPUTL
.*---------------------------------------------------------------------
.REGMSG  ANOP
&NAME    LR    1,&MSG             GET MESSAGE ADDRESS
         AIF   (K'&LEN NE 0).REGCNT
         MNOTE *,'MESSAGE LENGTH MUST BE SUPPLIED'
         MEXIT
.REGCNT  AIF   ('&LEN'(1,1) EQ '(').REGREGL
.*
.*     ASSUME THE LENGTH IS A NUMBER
.*
         LA    0,&LEN             GET MESSAGE LENGTH
         AGO   .DOPUTL
.*
.*     LENGTH WAS SUPPLIED IN A REGISTER
.*
.REGREGL ANOP
         LR    0,&LEN             GET MESSAGE LENGTH
         AGO   .DOPUTL
.*---------------------------------------------------------------------
.DOPUTL  ANOP
         L     15,=A(PUTGET)      GET ADDRESS OF PUTGET ROUTINE
         BALR  14,15              GO PROMPT FOR INPUT
         MEND
         SPACE 3
         MACRO
&NAME    LINEDIT &TEXT=,&SUB=,&DOT=YES
         LCLA  &TXTL,&OPER,&SUBL,&FLAGS
         LCLB  &REGVAL
         LCLC  &TXT,&FUNCT,&SUBLT,&SUBVAL,&TEMP(2)
         AIF   (K'&TEXT NE 0).CHKTXT
         MNOTE 8,'TEXT= OPERAND MISSING, IT IS REQUIRED'
         MEXIT
.*
.CHKTXT  AIF   ('&TEXT'(1,1) EQ '''').GETTXT
         MNOTE 8,'TEXT= OPERAND MUST BE ENCLOSED IN QUOTES'
         MEXIT
.*
.*       GET LENGTH OF TEXT AND ISOLATE TEXT FROM QUOTES
.*
.GETTXT  ANOP
&TXTL    SETA  K'&TEXT-2
&TXT     SETC  '&TEXT'(2,&TXTL)
.*
.*       CHECK FOR THE SUB= OPERAND
.*
         AIF   (K'&SUB NE 0).DOSUB
         MNOTE 8,'SUB= OPERAND IS MISSING, IT IS REQUIRED'
         MEXIT
.*
.DOSUB   ANOP
&FUNCT   SETC  '&SUB(1)'
         AIF   ('&FUNCT' EQ '').NULFUN
         AIF   ('&FUNCT' EQ 'CHARA').CHARA
         AIF   ('&FUNCT' EQ 'DECA').DECA
         AIF   ('&FUNCT' EQ 'DEC').DEC
         AIF   ('&FUNCT' EQ 'HEX4A').HEX4A
         AIF   ('&FUNCT' EQ 'HEXA').HEXA
         AIF   ('&FUNCT' EQ 'HEX').HEX
         MNOTE 8,'INVALID SUBSTITUTION FUNCTION &SUB(1)'
         MEXIT
.*
.NULFUN  MNOTE 8,'SUBSTITUTION FUNCTION OMITTED'
         MEXIT
.*
.HEX     ANOP
&OPER    SETA  0
         AGO   .FLAGS
.*
.HEXA    ANOP
&OPER    SETA  1
         AGO   .FLAGS
.*
.HEX4A   ANOP
&OPER    SETA  2
         AGO   .FLAGS
.*
.DEC     ANOP
&OPER    SETA  3
         AGO   .FLAGS
.*
.DECA    ANOP
&OPER    SETA  4
         AGO   .FLAGS
.*
.CHARA   ANOP
&OPER    SETA  5
         AGO   .FLAGS
.*
.*       SET UP FLAGS
.*
.FLAGS   ANOP
         AIF   ('&DOT' NE 'YES').SUBVAL
&FLAGS   SETA   128               TURN ON DOT FLAG (X'80')
.*
.*       GET SUBSTITUTION VALUE AND IMPLIED LENGTH
.*
.SUBVAL  ANOP
&SUBVAL  SETC   '&SUB(2)'
         AIF    ('&SUBVAL' NE '').GOODVAL
         MNOTE  8,'SUBSTITUTION VALUE MISSING. IT IS REQUIRED'
         MEXIT
.GOODVAL ANOP
         AIF    ('&SUBVAL'(1,1) NE '(').ADRVAL
&REGVAL  SETB   1                 INDICATE REGISTER VALUE
         AGO    .SUBLEN
.*
.*
.ADRVAL  ANOP
&REGVAL  SETB   0                 TURN OFF REGISTER SWITCH
.*
.*       GET LENGTH OF SUBSTITUTION VALUE IF SPECIFIED. IF ALLOWED
.*       THIS WILL OVERRIDE THE IMPLIED LENGTH
.*
.SUBLEN  ANOP
&SUBLT   SETC   '&SUB(3)'         GET LENGTH OF SUBSTITUTION VALUE
         AIF    ('&SUBLT' EQ '').PARMLST
         AIF    (&OPER EQ 2).SETLEN        ALLOW HEX4A TO SET LENGTH
         AIF    (&OPER EQ 5).SETLEN        ALLOW CHARA TO SET LENGTH
         MNOTE  8,'LENGTH SPECIFICATION NOT ALLOWED FOR &SUB(1)'
         MEXIT
.*
.SETLEN  ANOP
&SUBL    SETA   &SUBLT
         AGO    .PARMLST
.*
.*       SET UP PARAMETER LIST TO BE PASSED TO LINEDIT ROUTINE
.*
.PARMLST ANOP
&NAME    BAL   1,LNE&SYSNDX
         DC    AL1(&OPER)
         DC    AL1(&FLAGS)
         DC    AL2(&SUBL)
         DC    AL2(&TXTL)
         DC    C'&TXT'
LNE&SYSNDX  DS  0H
         AIF   (&REGVAL EQ 1).GENLR
         LA    0,&SUBVAL
         AGO   .EXIT
.*
.GENLR   LR    0,&SUBVAL
.EXIT    ANOP
         L     15,=A(LINEDIT)
         BALR  14,15
         MEND
         PRINT ON
         EJECT
******************************************************************* TSO
******************************************************************* TSO
******************************************************************* TSO
******************************************************************* TSO
******************************************************************* TSO
******************************************************************* TSO
******************************************************************* TSO
******************************************************************* TSO
*  THESE VALUES ARE USED TO SET A NUMBER OF ASSEMBLY PARAMETERS.    TSO
         SPACE 3                                                    TSO
         GBLA  &NUMTABS,&SIZ7171,&SIZLINE,&LOGBLK,&LOGRECL          TSO
         GBLC  &PRINT,&PREFIX,&LINMODE,&WARN                        AJR
&SIZ7171 SETA  1920               MAX PACKET SIZE FOR IBM7171       TSO
&SIZLINE SETA  1024               MAX PACKET SIZE FOR LINE TERMINAL TSO
&NUMTABS SETA  31                 MAXIMUM NUMBER OF TAB SETTINGS    TSO
&LOGBLK  SETA  19069              LOG DATA SET BLKSIZE              TSO
&LOGRECL SETA  9024               LOG DATA SET LRECL                TSO
&PRINT   SETC  'GEN'              MACRO EXPANSION PRINT OPTION      TSO
&PREFIX  SETC  'DISTRIB'          DATA SET PREFIXING METHOD         TSO
&LINMODE SETC  'NCP'              TERMINAL LINE MODE (NCP OR NOTNCP)TSO
&WARN    SETC  'ON'               IF "OFF" OVERWRITE INCOMING FILE  TSO
*                                 IF "ON" RENAME INCOMING FILE      TSO
         SPACE 1                                                    TSO
******************************************************************* TSO
******************************************************************* TSO
******************************************************************* TSO
******************************************************************* TSO
******************************************************************* TSO
******************************************************************* TSO
******************************************************************* TSO
******************************************************************* TSO
         EJECT                                                      TSO
KERMIT   TITLE 'KERMIT-TSO'                                         TSO
KERMIT   CSECT
* KERMIT   -
*
*  KERMIT TSO VERSION 2.20                                          TSO
*  April, 1987                                                      AJR
*
*  This program is the IBM MVS/TSO side of a file transfer system.  TSO
*  It can be used to transfer files between a micro and a system
*  running under MVS/TSO.                                           TSO
*  See the KERMIT User's Guide and Protocol manual for the complete
*  program specifications to which this program and any other
*  component of the system must adhere.
*
*  This program is based on the VM/CMS KERMIT Version 2.01          TSO
*  written by Daphne Tzoar, Columbia University Center for          TSO
*  Computing Activities in March 1982.                              TSO
*                                                                   TSO
*  Steve Blankinship, Triangle Universities Computation Center      TSO
*  January 1986                                                     TSO
*                                                                   TSO
*  NCP translate tables, support for RECFM=U, and V-Binary file     AJR
*  type support provided by Art Richard, Amdahl Corporation.        AJR
*
*  Please address all comments and questions to:
*                                                                   TSO
*  Steve Blankinship                                                TSO
*  Triangle Universities Computation Center                         TSO
*  P.O. Box 12076                                                   TSO
*  Research Triangle Park                                           TSO
*  North Carolina  27709                                            TSO
*  BITNET address  TUCSEB@TUCC                                      TSO
*
* Copyright (C) 1982,1983 Columbia University
* Additional material Copyright (C) 1986 Triangle Universities      TSO
*   Computation Center                                              TSO
*
* Permission is granted to any individual or institution to copy
* or use this program, except for explicitly commercial purposes.
*
* Note: If you find and correct problems in the program, please
* forward all changes to the author.
*
         EJECT
* REGISTER USAGE -
* R1 -
* R2 -
* R3 -
* R4 -
* R5 -
* R6 -
* R7 -
* R8 -
* R9 -
* R10 -
* R11 - BASE REGISTER FOR GLOBAL DATA AREA
* R12 - PROGRAM BASE
* R13 - SAVE AREA
* R14 - SUBROUTINE LINKAGE
* R15 - SUBROUTINE LINKAGE
*
* EXTERNAL MACROS/MODULES CALLED -
*  The following MACLIBs should be GLOBAL'd:
*       DMSSP, CMSLIB, TSOMAC
*
*  The following external routines are called:
*       WILD ASSEMBLE
*
*
         SPACE
ALCCB    DSECT                    PARM LIST FOR ALLOCDSN ROUTINE    TSO
ALCTYPE  DS    F                  TYPE OF ALLOCATION                TSO
ALCTOLD  EQU   X'80'              ALLOCATE OLD DATA SET             TSO
ALCTNEW  EQU   X'40'              ALLOCATE NEW DATA SET             TSO
ALCNCONC EQU   X'20'              DON'T ADD TO CONCATENATION TABLE  TSO
ALCCMPAT EQU   X'10'              DON'T CHECK FOR INCOMPATIBLE DATA TSO
*                                   SET TYPES.                      TSO
ALCDSN   DS    F                  POINTER TO LENGTH & DATA SET NAME TSO
ALCMEMBR DS    F                  POINTER TO LENGTH & MEMBER NAME   TSO
         SPACE 3                                                    TSO
LINPARMS DSECT                                                      TSO
LINFUNC  DS    AL1                FUNCTION CODE                     TSO
LINFLAGS DS    AL1                FLAGS                             TSO
LINDOT   EQU   X'80'              ON IF "DOT=YES"                   TSO
LINSUBL  DS    AL2                LENGTH OF SUBSTITUTION VALUE      TSO
LINTEXTL DS    AL2                LENGTH OF TEXT STRING             TSO
LINTEXT  DS    C                  START OF TEXT STRING              TSO
         SPACE 3                                                    TSO
         IKJCPPL                                                    TSO
         SPACE 3                                                    TSO
         IKJECT                                                     TSO
         SPACE 3                                                    TSO
         IKJUPT                                                     TSO
         SPACE 3                                                    TSO
         IKJIOPL                                                    TSO
         SPACE 3                                                    TSO
         IKJPTPB                                                    TSO
         SPACE 3                                                    TSO
         IKJPGPB                                                    TSO
         SPACE 3                                                    TSO
         IKJDFPL                                                    TSO
         SPACE 3                                                    TSO
         IKJDFPB                                                    TSO