         MACRO
&NAME    IEXENTRY  &REG=R15,&ID
.*
.*       IEXENTRY
.*
.*       COMPONENT ID - 360S-AL-531 ALGOL F COMPILER
.*
.*       GENERATE A MODULE EYE CATCHER OF THE SAME FORMAT AS THE
.*       SAVE MACRO BUT DO NOT SAVE REGISTERS AS THE ALGOL COMPILER
.*       OFTEN DOES NOT PROVIDE FOR THE SAVING OF REGS IN THE
.*       STANDARD MANNER AND FOR STANDARD MODULE ENTRY
.*       THE BRANCH REGISTER MAY BE SET TO ANOTHER REGISTER IF
.*       R15 IS NOT THE ENTRY POINT REGISTER BY USE OF THE
.*       REG PARAMETER
.*
         LCLA  &A,&B,&C
         LCLC  &E,&F,&G,&H
         AIF   ('&ID' EQ '').NULLID
         AIF   ('&ID' EQ '*').SPECID
         AIF   ('&ID'(1,1) NE '''').NOQUOTE
&B       SETA  1
&C       SETA  2
.NOQUOTE ANOP
&A       SETA  ((K'&ID+2)/2)*2+4-&C
*
&NAME    B     &A.(,&REG)          BRANCH AROUND ID
&A       SETA  K'&ID-&C
         DC    AL1(&A)             LENGTH OF IDENTIFIER
&E       SETC  '&ID'(&B+1,&A)
         DC    CL&A'&E'                          IDENTIFIER
         AGO   .CONTA
.NULLID  ANOP
&NAME    DS    0H
         AGO   .CONTA
.SPECID  AIF   ('&NAME' EQ '').CSECTN
&E       SETC  '&NAME'
&A       SETA  1
.CONTQ   AIF   ('&E'(1,&A) EQ '&E').LEAVE
&A       SETA  &A+1
         AGO   .CONTQ
.LEAVE   ANOP
&B       SETA  ((&A+2)/2)*2+4
*
&NAME    B     &B.(,&REG)          BRANCH AROUND ID
         DC    AL1(&A)
         DC    CL&A'&E'            IDENTIFIER
         AGO   .CONTA
.CSECTN  AIF   ('&SYSECT' EQ '').E4
&E       SETC  '&SYSECT'
&A       SETA  1
         AGO   .CONTQ
.E4      IHBERMAC 78,360                    CSECT NAME NULL
.CONTA   ANOP
         MEXIT
         MEND
