         MACRO
&NAME    $DSN  ,
*---------------------------------------------------------------------*
*   MAPPING MACRO FOR DATASET ENTRIES IN THE LIST OF DATASETS TO BE   *
*   CONCATENATED UNDER A SPECIFIED DDNAME.                            *
*---------------------------------------------------------------------*
$DDN1    DS    CL8                     DDNAME
$DSN1    DS    CL44                    DSNAME
$MEM1    DS    CL8                     MEMBER NAME
$VOL1    DS    CL6                     VOLSER
$NEXT    EQU   *
         MEND
