         MACRO
&NAME    $PROFWA
*---------------------------------------------------------------------*
*    WORK AREA FOR THE ISPF PROFILE DATASET ALLOCATOR                 *
*---------------------------------------------------------------------*
         DS    0D                      FORCE DOUBLE-WORD ALIGNMENT
WORKAREA EQU   *
CAMLST   DS    2D                      CAMLST CONTROL BLOCK
PWM1     DC    C'ISPF.PROFILE DATASET HAS BEEN CREATED ON ......'
PWM1VOL  EQU   PWM1+41
PWM2     DC    C'ERROR CREATING ISPF.PROFILE DATASET:'
PWM3     DC    C'  DSN=                                            '
PWM3DSN  EQU   PWM3+6
PWM4     DC    C'  DAIR RC=X''....'', ERROR=X''....'', INFO=X''....'''
PWM4RC   EQU   PWM4+12
PWM4ERR  EQU   PWM4+27
PWM4INFO EQU   PWM4+41
PWM5     DC    C'NO ...... PACKS AVAILABLE FOR ISPF.PROFILE DATASET'
PWM5VOL  EQU   PWM5+3
         DS    0F
DA4      DC    AL1(128),AL3(DA4RB)
DA4RB    DC    AL1(20),AL1(1),XL2'2800'
DA4ERR   DC    AL2(0)
DA4INFO  DC    AL2(0)
         DC    AL4(DA4TUPL)
         DC    AL4(0)
         DC    AL4(0)
DA4TUPL  DC    AL4(DA4DSN)             +0
         DC    AL4(DA4NEW)             +4
         DC    AL4(DA4CTLG)            +8
         DC    AL4(DA4UNIT)            +12
         DC    AL4(DA4VOL)             +16
         DC    AL4(DA4TRK)             +20
         DC    AL4(DA4PRI)             +24
         DC    AL4(DA4SEC)             +28
         DC    AL4(DA4DIR)             +32
         DC    AL4(DA4RECFM)           +36
         DC    AL4(DA4LRECL)           +40
         DC    AL1(128),AL3(DA4BLKSI)  +44
         DS    0F
DA4DSN   DC    XL2'0002',XL2'0001',AL2(44)
DA4DSNAM DC    CL44' '
         DS    0F
DA4NEW   DC    XL2'0004',XL2'0001',AL2(1)
         DC    XL1'04'
         DS    0F
DA4CTLG  DC    XL2'0005',XL2'0001',AL2(1)
         DC    XL1'02'
         DS    0F
DA4UNIT  DC    XL2'0015',XL2'0001',AL2(8)
         DC    CL8'SYSDA'
         DS    0F
DA4VOL   DC    XL2'0010',XL2'0001',AL2(6)
DA4VOLSE DC    CL6'      '
         DS    0F
DA4TRK   DC    XL2'0007',XL2'0000'
         DS    0F
DA4PRI   DC    XL2'000A',XL2'0001',AL2(3)
         DC    AL3(1)
         DS    0F
DA4SEC   DC    XL2'000B',XL2'0001',AL2(3)
         DC    AL3(1)
         DS    0F
DA4DIR   DC    XL2'000C',XL2'0001',AL2(3)
         DC    AL3(5)
         DS    0F
DA4RECFM DC    XL2'0049',XL2'0001',AL2(1)
         DC    XL1'90'
         DS    0F
DA4LRECL DC    XL2'0042',XL2'0001',AL2(2)
         DC    AL2(80)
         DS    0F
DA4BLKSI DC    XL2'0030',XL2'0001',AL2(2)
         DC    AL2(3120)
         DS    0D
CAMWORK  DS    CL265
         SPACE 3
*
*   WORK AREA FOR GDAFRSP
*
WORK     DS    D                       A SCRATCH AREA
CCHHR    DS    D                       STORAGE FOR DSCB CCHHR'S
EXTENTS  DS    F <-------------------+ # FREE EXTENTS
CYLS     DS    F    THESE AREAS      × # FREE CYLS
TRKS     DS    F    MUST BE          × # FREE TRKS
MAXCYLS  DS    F    CONTIGUOUS       × # CYLS IN LARGEST EXTENT
MAXTRKS  DS    F <-------------------+ # TRKS IN LARGEST EXTENT
EXTWORK  DS    35F                     EXTENT COMPUTATION WORK AREA
VOLSER   DS    CL6                     VOLSER OF VOLUME BEING READ
         SPACE 3
*
*   WORK AREA FOR GDAVOLSL
*
MAXVALUE DS    F                       SIZE, IN TRKS, OF LARGEST FREE
*                                      EXTENT FOUND SO FAR
MAXVOL   DS    CL6                     VOLSER CONTAINING LARGEST FREE
*                                      EXTENT FOUND SO FAR
GENVOL   DC    CL6'TEMP  '             GENERIC VOLSER
LENVOL   DC    F'4'                    L(GENERIC VOLSER)
         DS    0D
WORKLEN  EQU   *-WORKAREA
         MEND
