         MACRO
&NAME    IOCB
&NAME    DS    0F
IOCBFMT  DS    A
IOCBIMG  DS    A
IOCBDECB DS    A
IOCBCUR  DS    H                  CURSOR OFFSET FROM START OF IMAGE
IOCBFLGS DS    X
IOCBFNWR EQU   X'80'              FLAG FOR NO WRITE
IOCBFNRD EQU   X'40'              FLAG FOR NO READ
IOCBFW8  EQU   X'C0'              FLAGS FOR WAIT (CHECK) ONLY
IOCBFNWT EQU   X'20'              FLAG FOR NO WAIT
IOCBFCUR EQU   X'10'              FLAG FOR CURSOR ADDRESS SPECIFIED
IOCBFNBP EQU   X'04'              FLAG FOR BEEP NOT OVERRIDDEN
IOCBFNRR EQU   X'02'              FLAG FOR RESTORE NOT OVERRIDDEN
IOCBFNRS EQU   X'01'              FLAG FOR RESET NOT OVERRIDDEN
IOCBAID  EQU   IOCBFLGS           AID RETURNED AFTER READ
AIDENT   EQU   X'7D'              ENTER KEY AID
AIDPF1   EQU   X'F1'
AIDPF2   EQU   X'F2'
AIDPA1   EQU   X'6C'
AIDPA2   EQU   X'6E'
AIDCAN   EQU   AIDPA2
AIDPA3   EQU   X'6B'
AIDCLR   EQU   X'6D'
IOCBWCC  DS    X                  WRITE CONTROL CHARACTER
IOCBWBP  EQU   X'04'              BEEP
IOCBWRR  EQU   X'02'              WCC RESTORE
IOCBWRS  EQU   X'01'              WCC RESET MDT
         MEND
