        MACRO
&NAME  PICTURE   &WHERE,&LINE
&NAME  MVC     &LINE.+20(20),DLINE
       L       R4,SAVE2+&WHERE
       L       R5,SAVE1+&WHERE
       CVD     R4,DOUBLE
       ED      &LINE.+20(10),DOUBLE+3
       SR      R5,R4
       LCR     R5,R5
       CVD     R5,DOUBLE
       ED      &LINE.+30(10),DOUBLE+3
       ST      R4,SAVE1+&WHERE
       MEND
SWAP     XSTART  STAE=YES
         L      R3,COUNT
GET      EQU    *
       L   R4,16     GET CVT ADDRESS
       L   R4,604(R4)    GET CVTOPCTP  (ADDRESS OF RMCT)
       L   R4,20(R4)     GET RMCTRMCA  (ADDRESS OF RMCA)
       MVC  SAVE2(40),124(R4)   SAVE COUNTS
       PICTURE   0,LINE1
       PICTURE   4,LINE2
       PICTURE   8,LINE3
       PICTURE   12,LINE4
       PICTURE   16,LINE5
       PICTURE   20,LINE6
       PICTURE   24,LINE7
       PICTURE   28,LINE8
         PICTURE   32,LINE9
         PICTURE   36,LINEA
         TRMIO  IOCB,WRITE,FORMAT=SCR1,IMAGE=HEADING
          STIMER  WAIT,BINTVL=INTERVAL
         BCT      R3,GET
DONE    L    R13,4(R13)
       RETURN   (14,12),RC=0
DLINE     DC   XL20'4020202020202021202040202020202020202021'
HEADING  DC   CL79'      DCMS   SWAP   REPORT'
HEAD1    DC   CL20'  TYPE'
         DC   CL10'  ABSOLUTE'
         DC   CL49'  RELATIVE'
LINE1    DC   CL20'TERMINAL OUTPUT'
         DC     CL59' '
LINE2    DC   CL20'TERMINAL INPUT'
         DC     CL59' '
LINE3    DC   CL20'LONG WAIT'
         DC     CL59' '
LINE4    DC   CL20'AUX  STOR SHORTAGE'
         DC     CL59' '
LINE5    DC   CL20'REAL STOR SHORTAGE'
         DC     CL59' '
LINE6    DC   CL20'DETECTED WAIT'
         DC     CL59' '
LINE7    DC   CL20'REQSWAP'
         DC     CL59' '
LINE8    DC   CL20'CAP ENQ EXCHANGE'
         DC     CL59' '
LINE9    DC   CL20'CAP EXCHANGE ON REC'
         DC     CL59' '
LINEA    DC   CL20'CAP UNILATERAL'
         DC     CL59' '
COUNT    DC   F'010'
SAVE1    DC   10F'0'
SAVE2    DC   10F'0'
DOUBLE  DC  D'0'
INTERVAL    DC   F'1000'
      LTORG
SCR1    SFMT
        FIELD  79
        FIELD  79
        FIELD  79
        FIELD  79
        FIELD  79
        FIELD  79
        FIELD  79
        FIELD  79
        FIELD  79
        FIELD  79
        FIELD  79
       FIELD  79
        SFEND
IOCB    IOCB
  END  SWAP
