         MACRO
&NAME    ANYMOD &LOAD=,&CALL=,&DELETE=,&LIST=,&C=8
&NAME    BRING LOAD=&LOAD,CALL=&CALL,DELETE=&DELETE,LIST=&LIST,C=&C
         MEND
