         MACRO
&NAME    CENXTR
&NAME    IFDMOD LOAD='46'
         MEND
