         MACRO
&NAME    COMCOM
         LCLC  &V,&X,&Z
&V       SETC  'DC'
&X       SETC  'XL1'
&Z       SETC  '''00'''
         EJECT
         IFDPF1 &V,&X,&Z
REPBUF   EQU   INBUFR
         ENTRY REPBUF
         EJECT
         MEND
