         MACRO
&NAME    CREATE &A,&FTYPE=,&ACTNUM=
         GBLA  &RAFIOPR,&RAFIORG
         LCLC  &ANUM
         LCLC  &NAM
&NAM     SETC  '&NAME'
         AIF   ('&FTYPE' NE '').GO2
&ANUM    SETC  '1'                PRIVATE DEFAULT =1
         AIF   ('&ACTNUM' EQ '').GO1
&ANUM    SETC  '&ACTNUM'      OTHER PRIVATE, SET ACTNUM
.GO1     ANOP
&NAM     SETC  ''
&NAME    MVI   ACTNUMFS,&ANUM
         AGO   .GO3
.GO2     AIF   ('&ACTNUM' EQ '').GO3
&NAM     SETC  ''
&ANUM    SETC  '&ACTNUM'
&NAME    MVI   GBLNUMFS,&ANUM .   SET GLOBAL FILE NUMBER
.GO3     ANOP
         VALARG (&A),(2,IS,O),(&FTYPE),(3,,GBL,XGBL)
         RAFIOARG (&A,&FTYPE,CREATE)
&NAM     LA    &RAFIORG,&RAFIOPR
         RCALL AFIO
         MEND
