         MACRO
&NAME    DCHBD &DSECT=YES
         AIF   ('&DSECT' EQ 'NO').D1
DCHBWRK  DSECT
.D1      ANOP
         SPACE
DCHBCUU  DS    CL2                LINE ADDR: FORMAT 2 BYTE HEX
         SPACE
DCHBDESC DC    X'00'              1 BYTE DESCRIPTOR
*                                 X'00' DCHB FOR TCU
*                                 X'01' FIRST TERMINAL ON LINE
*                                 X'FF' LAST TERMINAL ON LINE
         SPACE
DCHBTCU  DS    CL4                TCU TYPE IN EBCDIC
         SPACE
         SPACE
DCHBNAME DS    CL8                TERMINAL NAME
DCHBTTYP DS    CL4                TERMINAL TYPE (E.G.F1F0F5F0)
         SPACE
DCHBADAP DS    CL1                ADAPTER TYPE
*                                 X'10' IBM I
*                                 X'20' IBM II
*                                 X'30' IBM TTY
*                                 X'40' TTY I
*                                 X'50' TTY II
*                                 X'60' WTC TTY
*                                 X'70' SDA I
*                                 X'80' IBM III
*                                 X'90' SDA II
         SPACE
DCHBTYPE DS    CL1                LINE TYPE
*                                 X'01' LEASED POINT TO POINT
*                                 X'02' LEASED MULTIDROP
*                                 X'03' SWITCHED NO AUTO DIAL
*                                 X'04' SWITCHED AUTO DIAL
*                                 X'05' LOCAL
         SPACE
DCHBCODE DS    CL1                LINE CODE
*                                 X'01' 6 BIT BCD
*                                 X'02' INT TEL ALPHABET 2
*                                 X'03' CODE SHIFTED BAUDOT
*                                 X'04' 8 LEVEL TWX
*                                 X'05' USASCII 8
*                                 X'06' FOUR OUT OF EIGHT CODE
*                                 X'07' EBCDIC
*                                 X'08' TRANSCODE
         SPACE
         DS    CL5                SPARE
         SPACE
DCHBPOL# DS    CL1                NO. OF POLLING CHARACTERS
         SPACE
DCHBPOLL DS    CL7                POLL CHARACTERS
         SPACE
DCHBC#   DS    CL1                NO. OF COMPONENT SELECTION CHARACTER
DCHBCOMP DS    CL10               COMPONENT SELECTION CHARACTERS
         SPACE
DCHBD#   DS    CL1                IF AUTODIAL NO. OF DIAL DIGITS
         SPACE
DCHBDIAL DS    CL20               DIAL DIGITS
         SPACE
DCHBCONT DS    CL30               LINE CONTROL CHARACTERS
*                                 FIRST 8 BYTES ARE OFFSET TO BYTE
*                                 COUNT OF CHARACTERS. AFTER BYTE
*                                 COUNT ARE CONTROL CHARACTERS
*                                 BYTE 1 OFFSET TO EOT SEQ
*                                 BYTE 2 OFFSET TO EOA SEQ
*                                 BYTE 3 OFFSET TO EVEN ACK SEQ
*                                 BYTE 4 OFFSET TO ODD ACK SEQ
*                                 BYTE 5 OFFSET TO NACK SEQ
*                                 BYTE 6 OFFSET TO PAD CHARACTERS
*                                 BYTE 7 & 8 UNDEFINED
*                                 X'00' MEANS NO SEQ FOR THIS FUNCTION
         SPACE
DCHBBS#  DS    CL1                NUMBER OF BY SYNC ID CHARACTERS
         SPACE
DCHBBSID DS    CL15               BI SYNC ID
         DS    CL8                SPARE
         SPACE
DCHBDEV  DS    CL10               DEVICE CONFIGURATOR BYTES
         MEND
