         MACRO
&NAME    DFINDATA
&NAME    DSECT
         DS    0D
DF       EQU   *
DFSAVE13 DS    F
DFRECB   DS    F                        REPLY ECB
DFRPLY   DS    CL121                    REPLY BUFFER
DFFF     DC    X'FF'                    POS.WILL CONTAIN FF TO FORCE
*                                       UNEQUAL COMPARES ON SYNTAX.
*                                       IS BASED ON DEPENDENCY THAT
*                                       MAST SCHED WILL TRT REPLY TO
*                                       INSURE ONLY PRINTABLE CHARACS.
DFSTAT   DS    C                        STATUS BYTE
DFEND    EQU   X'80'                    INTERNAL INDICATORS
DFLIST   EQU   X'40'                      FOR
DFCLASS  EQU   X'20'                       END,LIST & CLASS PARAMETERS
DFMULT   EQU   X'10'                    MULTIPLESUBPARM INDICATOR
DFEOB    EQU   X'08'                    EOB REACHED INDIC
DFCHNG   EQU   X'04'
DFLAST   EQU   X'02'              INDIC LAST PARM SPECIFIED
DFACTIV  EQU   X'01'                    PARTITION CURRENTLY ACTIVE
DFDSIZ   DS    CL2                      -DATA AREA SIZE
DFPMAX   DS    C                        MAXIMUM PARTITION NUMBER
DFXXA    DS    C                   TIME SLICE STATUS
TLIST    EQU   X'80'               TIME SLICE LIST REQUEST
DFTSLC EQU TLIST
TCANCEL  EQU   X'40'               CANCEL TIME SLICE
TPCHNG   EQU   X'20'               CHANGE TIME SLICE PARTITIONS
TVCHNG   EQU   X'10'               CHANGE TIME SLICE VALUE
TSACT    EQU   X'08'               TIME SLICE ACTIVE
DFRES    DS    C                   INTRA-MODULAR STATUS BITS
DFIDOFP0 DS    H                   ID OF P0-DEPENDS ON SYSGEN OPTS I250
DFSPARE  DS    C                   RESERVED                        I250
DFSYSNDX DS    C                   4 TIMES THE NO OF SYSGENED TCBS I250
*              THE FOLLOWING 2 FIELDS ARE USED BY DFIN3, 8, AND B  I250
DFTABR9  DS    H                   TABLE INDEX FOR TCB IN REG 9    I250
DFTABR10 DS    H                   TABLE INDEX FOR TCB IN REG 10   I250
DFTMSL   DS    D                   TIME SLICE DATA
DFTAB    DS    0D                       TABLE OF PARTITION INFORMAT&ON.
*                                        UP TO 52 ENTRIES, EACH ENTRY.
*                                        DESCRIBED LIKE-
DFWKAREA DS    0D                  TEMPORARY WORK AREA
WHSIZE   DS    H                   HSS SIZE
WLCSIZE  DS    H                   LCS SIZE
WSTAT    DS    C                   STATUS
WCLASS   DS    3C                  CLASS FOR PARTITION
PSIZE    DS    H                   HSS SIZE
PLCSIZE  DS    H                   LCS SIZE
PSTAT    DS    C                   PARTITION STATUS
PEND     EQU   X'80'               LAST ENTRY INDICATOR
PLAST EQU      X'40'               LOWEST ACTIVE TCB
PCHNG    EQU   X'20'               PARTITION BEING CHANGED
PCRNT    EQU   X'10'               CHANGED BY REPLY BEING SCANNED
PSCSZ    EQU   X'08'               ON = LARGE SIZE PARTITION
PPSIZ    EQU   X'04'               SIZE STORED INDICATOR
PPCLS    EQU   X'02'               CLASS,RDR,WTR CHANGE
PACTIVE  EQU   X'01'               PARTITION CURRENTLY ACTIVE
PCLASS   DS    CL3                      CLASSES,R OR W.
         ORG   PSIZE
         DS    52CL8
DFTBSIZ  EQU   *-DF
RPLYSZ   EQU   L'DFRPLY                 LENGTH ATTRIBUTE OF REPLY BUF.
         MEND
