         MACRO
&NAME    ENDUP &DUMMY,&FTYPE=
         GBLA  &RAFIOPR,&RAFIORG
         VALARG (&DUMMY),(1,),(&FTYPE),(3,,GBL,XGBL)
         RAFIOARG (&FTYPE,ENDUP)
&NAME    LA    &RAFIORG,&RAFIOPR
         RCALL AFIO
         MEND
