        MACRO
&NAME   GBLGENER &C=,&D=,&U1=,&U=,&MIN1=21,&MIN2=51,&TSO=YES
.*  &C = NUMBER OF CONTROL UNITS SUPPORTED
.* &D = NUMBER OF DEVICES SUPPORTED
.* &U1 = NUMBER OF ADDRESSES FOR UNIT NAMES
.* &U = NUMBER OF UNIT NAMES
.* &MIN1 = NUMBER OF LINKLIB USER ROUTINES+1
.* &MIN2 = NUMBER OF SVCLIB USER ROUTINES+1
.* &TSO = TSO SWITCH - 'NO' EXCLUDES TSO GLOBALS
         REPRO
 GBLA &SGTESTA(2),&HEX,&SGCTRLA(2),&SGFORTA(8),&SGSUPRA(2)
 PUNCH ' GBLA &&SGUNNMA(&U1),&&SGCNTRA(10),&&SGDADRA(&D),&&SGCBLEA(2)'
 PUNCH ' GBLA &&SGCPRGA(23),&&SGOPCHA,&&SGDASDA,&&SGACTR'        S21167
         REPRO
 GBLA &IEALOA,&IEAHIA,&IEALMTA,&SGPL11A(10),&SGSTMGA,&SGMAXDV
         REPRO
 GBLA &SGCBLFA(3),&SGMAXA(3),&SGFORLA(5),&SGCBLUA(3)
         REPRO
 GBLA &SGSCHDA(20),&SGUTSZA,&SGALGOA(1),&SG2314A,&SG5450A,&SGSCNYA(2)
         REPRO
 GBLA &SGSCHAA(12),&SGSCNPA(31),&SGAR01A(31),&SGAR02A(31),&SGAR03A(31)
         REPRO
 GBLA &SGAR04A(31),&SGAR05A(31),&SGAR06A(31),&SGAR07A(31),&SGAR08A(31)
         REPRO
 GBLA &SGAR09A(31),&SGAR10A(31),&SGAR11A(31),&SGAR12A(31)
         REPRO
 GBLA &SG3330A,&SG2305A,&SGTGRIA(32),&SGTGROA(32)
         REPRO
 GBLA &SG3505A,&SG3525A
         REPRO
 GBLA &SGCKPA(6),&SG2321A,&SG2311A,&SGLDRA,&SGCPRNA(1),&SGBSCA
         REPRO
 GBLA &SGCPRPA(104),&SGLINKA(8),&SGSCNXA,&SGSCNZA
 PUNCH ' GBLA &&SGDNBFA(&D),&&SGDEVTP(&D),&&SGETABA(&D)'
 PUNCH ' GBLA &&SGCUN1A(&C)'
 PUNCH ' GBLA &&SGGJUA(15),&&SGGJCA(11) '
.* * * TEST FOR TSO - SGMINPAK WON'T CONTAIN TSO GLOBALS -- GBLA'S  *
         AIF   ('&TSO' EQ 'NO').A5      TEST FOR TSO - BRANCH IF NO
         REPRO
 GBLA &SGEDITA(25),&SGTSOPA(4),&SGMODA(1),&SGEDT2A(25),&SGEDT3A(25)
          REPRO
 GBLA &SGEDT4A(25),&SGEDT5A(25)
.A5      ANOP
 PUNCH ' GBLB &&SGGJCB(8),&&SGLDRB(5)'
         REPRO
 GBLB &SGCHANB(240),&SGQUITB,&SGMENTB(89),&SGSUPRB(48),&SGCPRGB(14)
 PUNCH ' GBLB &&SGUNU1B(&C),&&SGUNU2B(&C),&&SGUNU3B(&C),&&SGUNU4B(&C)'
 PUNCH ' GBLB &&SGUNU5B(&C),&&SGUNU6B(&C),&&SGUNU7B(&C),&&SGUNU8B(&C)'
 PUNCH ' GBLB &&SGUNM1B(&C),&&SGUNM2B(&C),&&SGUNM3B(&C),&&SGUNM4B(&C)'
 PUNCH ' GBLB &&SGUNM6B(&C),&&SGUNF4B(&C),&&SGUNF5B(&C),&&SGUNT3B(&C)'
 PUNCH ' GBLB &&SGUNF6B(&C)'
 PUNCH ' GBLB &&SGUNF1B(&C),&&SGUNF2B(&C),&&SGUNF3B(&C),&&SGUNM5B(&C)'
 PUNCH ' GBLB &&SGUNT1B(&C),&&SGUNT2B(&C),&&SGTESTB(6)'
         REPRO
 GBLB &SGSCHDB(44),&SGDMGTB(5),&SGCPUB(54),&SGSTMGB(17),&SGDCLSB(83)
         REPRO
 GBLB &SGUCSIB(12),&SGUCSDB(12),&SGCKPB(56),&SGCBLUB(24)
         REPRO
 GBLB &SGUCSEB(2),&SG2CSIB(5),&SG2CSDB(5)
 PUNCH ' GBLB &&SGDT01B(&D),&&SGDT02B(&D),&&SGDT03B(&D),&&SGDT04B(&D),&X
               &LIMIT(4)'
 PUNCH ' GBLB &&SGDT05B(&D),&&SGDT06B(&D),&&SGDT07B(&D),&&SGDT08B(&D)'
 PUNCH ' GBLB &&SGDT12B(&D),&&SG3410B(&D)'
 PUNCH ' GBLB  &&SGBRSTB(16)'
 PUNCH ' GBLB &&SGDU01B(&D),&&SGDU02B(&D),&&SGDU03B(&D),&&SGDU04B(&D)'
 PUNCH ' GBLB &&SGDU05B(&D),&&SGDU06B(&D),&&SGDU07B(&D),&&SGDU08B(&D)'
 PUNCH ' GBLB &&SGDU09B(&D),&&SGDU10B(&D),&&SGDU11B(&D)'
 PUNCH ' GBLB &&SGDM01B(&D),&&SGDM02B(&D),&&SGDM03B(&D),&&SGDM04B(&D)'
 PUNCH ' GBLB &&SGDM05B(&D),&&SGDM06B(&D),&&SGDM07B(&D),&&SGDM08B(&D)'
 PUNCH ' GBLB &&SGDM09B(&D),&&SGOPSUB(&D),&&SG2321B(&D),&&SGDASWB(&D)'
 PUNCH ' GBLB &&SGDF01B(&D),&&SGDF02B(&D),&&SGDF03B(&D),&&SGDF04B(&D)'
 PUNCH ' GBLB &&SGDF05B(&D),&&SGDF06B(&D),&&SGDF07B(&D),&&SGDF08B(&D)'
 PUNCH ' GBLB &&SGDF09B(&D),&&SGDF10B(&D),&&SGDF11B(&D),&&SGDF12B(&D)'
 PUNCH ' GBLB &&SGDF13B(&D),&&SGDF14B(&D),&&SGDF15B(&D)'
 PUNCH ' GBLB &&SGDAP1B(&D),&&SGDAP2B(&D),&&SGDAP3B(&D)'
 PUNCH ' GBLB &&SGDAP4B(&D),&&SGDAP5B(&D),&&SGDAP6B(&D),&&SGDRQ1B(&D)'
 PUNCH ' GBLB &&SGDAP7B(&D),&&SGDAP8B(&D),&&SGDAP9B(&D),&&SGDAPAB(&D)'
 PUNCH ' GBLB &&SGDAPBB(&D),&&SGDAPCB(&D),&&SGDAPDB(&D),&&SGDAPEB(&D)'
 PUNCH ' GBLB &&SGDAPFB(&D)'
 PUNCH ' GBLB &&SGDRQ2B(&D)'
 PUNCH ' GBLB &&SGDAD1B(&D),&&SGDAD2B(&D),&&SGDAD3B(&D),&&SGDAD4B(&D)'
 PUNCH ' GBLB &&SGDAD5B(&D),&&SGDAD6B(&D),&&SGDAD7B(&D),&&SGDAD8B(&D)'
 PUNCH ' GBLB &&SGDSQ1B(&D),&&SGDSQ2B(&D),&&SGTRMDB(&D),&&SGSVCAB(255)'
         REPRO
 GBLB &SGCOBLB(4),&SGSVCBB(255),&SGSVCCB(255),&SGSVCDB(255),&SGMALB(11)
         REPRO
 GBLB &SGSVCEB(255),&SGSVCFB(255),&SGFORTB(52),&SGLINKB(19),&SGCBLEB(6)
         REPRO
 GBLB &SGCBLFB(11),&SGLOADB(3),&SGOVERB(4),&SGASSEB(3),&SGPL11B(160)
         REPRO
 GBLB &SGCTRLB(16),&GETB(3),&SGFORLB(5),&SGGRPHB(4),&SGALGOB(5)
         REPRO
 GBLB &SGCHK1B(2),&SGPTOPB(1),&SGNODEV,&SGMOD1B(5),&SGMOD2B(5)
         REPRO
 GBLB  &SGMOD3B(5),&SGMOD4B(5),&SGMOD5B(5),&SGMOD6B(5)
         REPRO
 GBLB &SGMOD7B(5),&SGMOD8B(5),&SGMOD9B(5),&SGMODAB(5),&SGMODBB(5)
         REPRO
 GBLB &SGSIZ1B(5),&SGSIZ2B(5),&SGSIZ3B(5),&SGSIZ4B(5),&SGSIZ5B(5)
         REPRO
 GBLB &SGSIZ6B(5),&SGSIZ7B(5),&SGSIZ8B(5),&SGSIZ9B(5),&SGSIZ0B(5)
         REPRO
 GBLB &SGEMULB(1),&SGUTILB(3)
         REPRO
 GBLB &SGSER1B(5),&SGSER2B(5),&SGSER3B(5),&SGSER4B(5),&SGMCSTB(4)
         REPRO
 GBLB &SGSCHRB(16),&SGSCHOB(16),&SGSCHHB(16),&SGLCPB(1)
       REPRO
     GBLB &SGCKPLB(4),&SGCKFTB(4)
         REPRO
 GBLB &SGRT01B(31),&SGRT02B(31),&SGRT03B(31),&SGRT04B(31),&SGRT05B(31)
         REPRO
 GBLB &SGRT06B(31),&SGRT07B(31),&SGRT08B(31),&SGRT09B(31),&SGRT10B(31)
         REPRO
 GBLB &SGRT11B(31),&SGRT12B(31),&SGRT13B(31),&SGRT14B(31),&SGRT15B(31)
         REPRO
 GBLB &SGRT16B(31),&SGCMD1B(31),&SGCMD2B(31),&SGCMD3B(31),&SGCMD4B(31)
         REPRO
 GBLB &SGSCSDB(31),&SGSCMSB(31)
 PUNCH ' GBLB &&SGDUMMY(&D),&&SGDEVB(1),&&SGTYPEB(96)'
.* * * TEST FOR TSO - SGMINPAK WON'T CONTAIN TSO GLOBALS -- GBLB'S  *
.*             THERE ARE NO B-GLOBALS UNIQUE TO TSO
 PUNCH ' GBLC &&SGGJCC(11),&&SGLDRC(3)'
 PUNCH ' GBLC &&SGRESMC(11),&&SGUNNMC(&U),&&SGCTRLC(66)'
         REPRO
 GBLC &SGCPRGC(26)
 PUNCH ' GBLC &&SGSCHDC(15),&&EBCDIC,&&SGLNKLC(&MIN1),&&SGSVCLC(&MIN2)'
 PUNCH ' GBLC &&SGCNTRU,&&SGSCNCC(31),&&SGSCNAC(31)'
.* * * TEST FOR TSO - SGMINPAK WON'T CONTAIN TSO GLOBALS -- GBLC'S  *
         AIF   ('&TSO' EQ 'NO').A10     TEST FOR TSO - BRANCH IF NO
         REPRO
 GBLC &SGCLASC(1),&SGEDITC(25),&SGEDT2C(25),&SGEDT3C(25),&SGEDT4C(25)
          REPRO
 GBLC &SGEDT5C(25),&SGEDT6C(25),&SGEDT7C(25)
.A10     ANOP
         MEND
