         MACRO
&NAME    IEEGERRC
&NAME    EQU   *
*                  COMPOSITION ERROR CODE GENERATION PROCEDURE.
         BCTR  ERRGPR,0            COUNT.
         BCTR  ERRGPR,0            DELIMITER.
         BCTR  ERRGPR,0            KEY.
         BCTR  ERRGPR,0            POSITION.
         BCTR  ERRGPR,0            VERB.
         BCTR  ERRGPR,0            NUMERICS.
         STC   ERRGPR,MSERM  PLACE CODE IN RESIDENT RECEPTACLE.
         MEND
