         MACRO
&NAME    IFASMFR &RECTYPE,&T1,&T2
.*D 015300-018900,157500,234000,471600,472467,659700,660600      100000
.*D 673200,809100,852300                                         100000
.*C 009000,009900,014400,018000,028800                           100000
.*C 063000,065700,091800,092700,112500,171900                    100000
.*C 245700,263700,282600,296100,301500,360900,379800,399600      100000
.*C 425700,458100,462600,612900,614700,629100,630900,665100      100000
.*C 742500,847800,848700,882900,913500,946800-948600             100000
.*A 018500-019500,058100,094100,111200,112100,118400,118500      100000
.*A 119300-119500,153500-153860,156700-158100,172400             100000
.*A 330400-331160,471200-472467,659300-661267,673200-674080      100000
.*A 767300                                                       100000
.*A 232700-233700,296600,296900,808700-809600,851900-852300      A40791
.*A 639500,639600                                                A40793
*  THIS IS AN SMF MACRO WHICH BUILDS ANY NUMBER OF SMF RECORDS. THE
* REQUIRED FORMAT IS -
*
*        IFASMFR  &RECTYPE,&T1,&T2
*  NOTE: VALUES FOR &RECTYPE MUST BE ENCLOSED IN PARENTHESES.
*  THE POSSIBLE VALUES FOR &RECTYPE ARE:
*
*        0 - 13                SUBSET1 TYPE RECORDS              100000
*        14,15,17-21           SUBSET2 TYPE RECORDS              100000
*        30-35,38,40-42        TSO TYPE RECORDS
*
*  THE POSSIBLE VALUES FOR &T1 OR &T2 ARE:
*
*        SUBSET1, SUBSET2, TSO, ALL                              100000
         LCLA  &NUM,&B,&SWK,&SW1                                 100000
.* &NUM IS SET TO THE NUMBER OF SUBSTRING ITEMS IN THE FIRST     100000
.* PARAMETER AND &B IS USED TO POINT AT EACH SUBSTRING ITEM.     100000
.* &SW1=0 FOR CALLING OUT INDIVIDUAL RECORD TYPES BY NUMBER      100000
.*     =1 FOR SUBSET1,  =2 FOR TSO,  =3 FOR SUBSET2,  =4 FOR ALL 100000
.* &SWK=1 FOR EXAMINING &T1(2ND ARGUMENT)                        100000
.*     =2 FOR EXAMINING &T2(3RD ARGUMENT)                        100000
.*     =3 FOR ENDING.                                            100000
         AIF   ('&RECTYPE' EQ '' AND '&T1' EQ '' AND '&T2' EQ '').E1
         AIF   ('&RECTYPE' EQ '').NEXT
&NUM     SETA  N'&RECTYPE
         AGO   .CONTC
.CONTB   ANOP
&NUM     SETA  &NUM-1
.CONTC   ANOP
         AIF   (&NUM LE 0).NEXT
&B       SETA  &B+1
.RTYCHK  AIF   ('&RECTYPE(&B)' EQ '').E3
         AIF   (&RECTYPE(&B) GT 42 OR &RECTYPE(&B) LT 0).E5      100000
         AGO   .CONTA
.E1      ANOP
         SPACE 3
         MNOTE 8,'PARAMETERS OMITTED, PROCESSING TERMINATED'
         MEXIT
.E2      ANOP
         SPACE 3
         MNOTE 8,'&RECTYPE(&B) DUPLICATE RECORD CALL'
         AGO   .CONTB
.E3      ANOP
         SPACE 3
         MNOTE 4,'NULL RECORD TYPE PASSED'
         AGO   .CONTB
.E4      ANOP
         SPACE 3
         MNOTE 8,'&T1,&T2, INVALID COMBINATION OF PARAMETERS'
         MEXIT
.E5      ANOP
         SPACE 3
         MNOTE 4,'&RECTYPE(&B) INVALID RECORD TYPE SPECIFIED'
         AGO   .CONTB
.E6      ANOP
         SPACE 3
         MNOTE 8,'&T1 KEYWORD INVALID'
         AGO   .TKEY
.E7      ANOP
         SPACE 3
         MNOTE 8,'&T2 KEYWORD INVALID'
         MEXIT
.NEXT    ANOP
         AIF   ('&T1' EQ 'ALL' AND '&T2' NE '').E4
         AIF   ('&T2' EQ 'ALL' AND '&T1' NE '').E4
         AIF   ('&T1' EQ '&T2' AND '&T1' NE '').E4               100000
.TKEY    ANOP
&SW1     SETA  0
&SWK     SETA  &SWK+1
         AIF   (&SWK EQ 1).SK1
         AIF   (&SWK EQ 2).SK2
         AIF   (&SWK EQ 3).OUT                                   100000
.SK1     ANOP
         AIF   ('&T1' EQ '').TKEY                                100000
         AIF   ('&T1' EQ 'SUBSET1').SSW1
         AIF   ('&T1' EQ 'TSO').SSW2
         AIF   ('&T1' EQ 'SUBSET2').SSW3
         AIF   ('&T1' EQ 'ALL').SSW4
         AGO   .E6
.SK2     ANOP
         AIF   ('&T2' EQ '').OUT
         AIF   ('&T2' EQ 'SUBSET1').SSW1
         AIF   ('&T2' EQ 'TSO').SSW2
         AIF   ('&T2' EQ 'SUBSET2').SSW3
         AIF   ('&T2' EQ 'ALL').SSW4
         AGO   .E7
.SSW1    ANOP
&SW1     SETA  1
         AGO   .SW1A
.SSW2    ANOP
&SW1     SETA  2
         AGO   .SW1A
.SSW3    ANOP
&SW1     SETA  3
         AGO   .SW1A
.SSW4    ANOP
&SW1     SETA  4
.SW1A    ANOP
         AIF   (&SW1 EQ 3).IFAS014
         AIF   (&SW1 EQ 2).IFAS030
         AGO   .IFAS000
.CONTA   AIF   (&RECTYPE(&B) GE 0 AND &RECTYPE(&B) LE 5).G1
         AIF   (&RECTYPE(&B) GE 6 AND &RECTYPE(&B) LE 13).G2     100000
         AIF   (&RECTYPE(&B) GE 14 AND &RECTYPE(&B) LE 21).G3    100000
         AIF   (&RECTYPE(&B) GE 30 AND &RECTYPE(&B) LE 42).G4
         AGO   .E5                                               100000
.G1      ANOP
         AIF   ('&T1' EQ 'SUBSET1' OR '&T2' EQ 'SUBSET1').E2
         AIF   ('&T1' EQ 'ALL' OR '&T2' EQ 'ALL').E2
         AIF   (&RECTYPE(&B) EQ 0).IFAS000
         AIF   (&RECTYPE(&B) EQ 1).IFAS001
         AIF   (&RECTYPE(&B) EQ 2).IFAS002
         AIF   (&RECTYPE(&B) EQ 3).IFAS003
         AIF   (&RECTYPE(&B) EQ 4).IFAS004
         AIF   (&RECTYPE(&B) EQ 5).IFAS005
.G2      ANOP
         AIF   ('&T1' EQ 'SUBSET1' OR '&T2' EQ 'SUBSET1').E2
         AIF   ('&T1' EQ 'ALL' OR '&T2' EQ 'ALL').E2
         AIF   (&RECTYPE(&B) EQ 6).IFAS006
         AIF   (&RECTYPE(&B) EQ 7).IFAS007
         AIF   (&RECTYPE(&B) EQ 8).IFAS008
         AIF   (&RECTYPE(&B) EQ 9).IFAS009
         AIF   (&RECTYPE(&B) EQ 10).IFAS010
         AIF   (&RECTYPE(&B) EQ 11).IFAS011
         AIF   (&RECTYPE(&B) EQ 12).IFAS012
         AIF   (&RECTYPE(&B) EQ 13).IFAS013                      100000
.G3      ANOP
         AIF   (&RECTYPE(&B) EQ 16).E5                           100000
         AIF   ('&T1' EQ 'SUBSET2' OR '&T2' EQ 'SUBSET2').E2     100000
         AIF   ('&T1' EQ 'ALL' OR '&T2' EQ 'ALL').E2
         AIF   (&RECTYPE(&B) EQ 14 OR &RECTYPE(&B) EQ 15).IFAS014
         AIF   (&RECTYPE(&B) EQ 17).IFAS017
         AIF   (&RECTYPE(&B) EQ 18).IFAS018
         AIF   (&RECTYPE(&B) EQ 19).IFAS019
         AIF   (&RECTYPE(&B) EQ 20).IFAS020
         AIF   (&RECTYPE(&B) EQ 21).IFAS021                      100000
         AGO   .E5                                               100000
.G4      ANOP
         AIF   (&RECTYPE(&B) EQ 36).E5                           100000
         AIF   (&RECTYPE(&B) EQ 37).E5                           100000
         AIF   (&RECTYPE(&B) EQ 39).E5                           100000
         AIF   ('&T1' EQ 'TSO' OR '&T2' EQ 'TSO').E2
         AIF   ('&T1' EQ 'ALL' OR '&T2' EQ 'ALL').E2
         AIF   (&RECTYPE(&B) EQ 30).IFAS030
         AIF   (&RECTYPE(&B) EQ 31).IFAS031
         AIF   (&RECTYPE(&B) EQ 32).IFAS032
         AIF   (&RECTYPE(&B) EQ 33).IFAS033
         AIF   (&RECTYPE(&B) EQ 34).IFAS034
         AIF   (&RECTYPE(&B) EQ 35).IFAS035
         AIF   (&RECTYPE(&B) EQ 38).IFAS038
         AIF   (&RECTYPE(&B) EQ 40).IFAS040
         AIF   (&RECTYPE(&B) EQ 41).IFAS041
         AIF   (&RECTYPE(&B) EQ 42).IFAS042
         AGO   .E5
.OUT     MEXIT
.IFAS000 ANOP
         EJECT
*  THIS DSECT DEFINES THE FORMAT FOR RECORD TYPE 0 (IPL RECORD)
*  RECORD LENGTH IS 27 BYTES
*
         DS    0F        ALIGN TO FULL WORD BOUNDARY
SMFRCD0  EQU   *         HEADER SEGMENT
SMF0LEN  DS    BL2'0'    RECORD LENGTH
SMF0SEG  DS    BL2'0'    SEGMENT DESCRIPTOR
SMF0RSV  DC    BL1'0'    RESERVED
SMF0RTY  DC    BL1'0'    RECORD TYPE 0
SMF0TME  DC    4BL1'0'   TOD, USING FORMAT FROM TIME MACRO W/BIN. INTVL
SMF0DTE  DC    PL4'0000'      DATE IN PACKED DECIMAL FORM: 00YYDDDF
*                             ( F IS A SIGN)
SMF0SID  DC    2CL1' '   SYSTEM IDENTIFICATION
SMF0MOD  DC    2CL1' '   MODEL NO.
SMF0JWT  DC    4BL1'0'   JOB WAIT TIME DEFAULT VALUE IN MINUTES(BINARY)
SMF0BUF  DC    4BL1'0'   SMF BUFFER SIZE IN BYTES(BINARY)
SMF0MST  DC    4BL1'0'   MAIN STORAGE SIZE IN K BLOCKS(BINARY)
SMF0OPT  DC    BL1'0'    OPTIONS BYTE:
*              BIT0 - SYSTEM & JOB DATA TO BE COLLECTED               *
*              BIT1 - SYSTEM, JOB, & STEP DATA TO BE COLLECTED        *
*              BIT2 - EXITS REQUESTED                                 *
*              BIT3 - DATA SET ACCOUNTING REQUESTED              100000
*              BIT4 - VOLUME ACCOUNTING REQUESTED                100000
*              BIT5 - ESV RECORDING INFO IN REC TYPES 14 AND 15  100000
*              BIT6 - SCRATCH INFORMATION FOR TEMPORARY DATA     100000
*                     SETS TO BE COLLECTED                       100000
*              BIT7 - 0= BACKGROUND                              100000
*                     1= FOREGROUND                              100000
         AIF   (&SW1 EQ 0).CONTB
.IFAS001 ANOP
         EJECT
*
* THIS DSECT DEFINES THE FORMAT OF THE RECORD TYPE 1 (WAIT TIME) 100000
* THIS RECORD IS WRITTEN AFTER EVERY IPL AND AT THE FIRST JOB OR 100000
* STEP TERMINATION FOLLOWING THE EXPIRATION OF A TEN-MINUTE      100000
* INTERVAL OF SYSTEM TIME.  THE RECORD LENGTH IS 18 BYTES.       100000
*
         DS    0F        ALIGN TO FULL WORD BOUNDARY
SMFRCD1 EQU    *         HEADER SEGMENT
SMF1LEN  DS    BL2'0'    RECORD LENGTH
SMF1SEG  DS    BL2'0'    SEGMENT DESCRIPTOR
SMF1RSV  DC    BL1'0'    RESERVED
SMF1RTY  DC    BL1'0'    RECORD TYPE 1
SMF1TME  DC    4BL1'0'   TOD, USING FORMAT FROM TIME MACRO W/BIN. INTVL
SMF1DTE  DC    PL4'0000'      DATE IN PACKED DECIMAL FORM: 00YYDDDF
*                             ( F IS A SIGN)
SMF1SID  DC    2CL1' '   SYSTEM IDENTIFICATION
SMF1MOD  DC    2CL1' '   MODEL NO.
SMF1SWT  DC    4BL1'0'   SYSTEM WAIT TIME IN HUNDREDTHS OF       100000
*                        SECONDS FOR EXPIRED 10 MINUTE INTERVALS 100000
*                        SINCE LAST WAIT TIME RECORD             100000
         AIF   (&SW1 EQ 0).CONTB
.IFAS002 ANOP
         EJECT
* THIS RECORD IS WRITTEN BY THE SMF DUMP UTILITY PROGRAM AT THE
* BEGINNING OF A DUMP DATA SET. RECORD LENGTH IS 14 BYTES
*
         DS    0F        ALIGN TO FULL WORD BOUNDARY
SMFRCD2  EQU   *         HEADER SEGMENT
SMF2LEN  DS    BL2'0'    RECORD LENGTH
SMF2SEG  DS    BL2'0'    SEGMENT DESCRIPTOR
SMF2RSV  DC    BL1'0'    RESERVED
SMF2RTY  DC    BL1'0'    RECORD TYPE 2
SMF2TME  DC    4BL1'0'   TOD, USING FORMAT FROM TIME MACRO W/BIN. INTVL
SMF2DTE  DC    PL4'0000'      DATE IN PACKED DECIMAL FORM: 00YYDDDF
*                             ( F IS A SIGN)
SMF2SID  DC    2CL1' '   SYSTEM IDENTIFICATION
SMF2MOD  DC    2CL1' '   MODEL NO.
         AIF   (&SW1 EQ 0).CONTB
.IFAS003 ANOP
         EJECT
* THIS RECORD  IS WRITTEN BY THE SMF DUMP UTILITY PROGRAM AT THE END
* OF A DUMP DATA SET. RECORD LENGTH IS  14 BYTES.
*
         DS    0F        ALIGN TO FULL WORD BOUNDARY
SMFRCD3  EQU   *         HEADER SEGMENT
SMF3LEN  DS    BL2'0'    RECORD LENGTH
SMF3SEG  DS    BL2'0'    SEGMENT DESCRIPTOR
SMF3RSV  DC    BL1'0'    RESERVED
SMF3RTY  DC    BL1'0'    RECORD TYPE 3
SMF3TME  DC    4BL1'0'   TOD, USING FORMAT FROM TIME MACRO W/BIN. INTVL
SMF3DTE  DC    PL4'0000'      DATE IN PACKED DECIMAL FORM: 00YYDDDF
SMF3SID  DC    2CL1' '   SYSTEM IDENTIFICATION
SMF3MOD  DC    2CL1' '   MODEL NO.
         AIF   (&SW1 EQ 0).CONTB
.IFAS004 ANOP
         EJECT
* THIS RECORD IS WRITTEN AT NORMAL OR ABNORMAL TERMINATION OF A JOB
* STEP.RECORD LENGTH IS VARIABLE.
*
         DS    0F        ALIGN TO FULL WORD BOUNDARY
SMFRCD4  EQU   *         HEADER SEGMENT
SMF4LEN  DS    BL2'0'    RECORD LENGTH
SMF4SEG  DS    BL2'0'    SEGMENT DESCRIPTOR
SMF4RSV  DC    BL1'0'    RESERVED
SMF4RTY  DC    BL1'0'    RECORD TYPE 4
SMF4TME  DC    4BL1'0'   TOD USING FORMAT FROM TIME MACRO W/BIN. INTVL.
SMF4DTE  DC    PL4'0000' DATE IN PACKED DECIMAL FORM: OOY4DDDF
SMF4SID  DC    2CL1' '   SYSTEM IDENTIFICATION
SMF4MOD  DC    2CL1' '   MODEL NUMBER
SMF4JBN  DC    8CL1' '   JOB NAME
SMF4RST  DC    4BL1'0'   READER START TIME (IN 100THS SECONDS)
SMF4RDS  DC    PL4'0000' READER START DATE
SMF4UIF  DC    8CL1' '   USER IDENTIFICATION FIELD
SMF4STN  DC    BL1'0'    STEP NUMBER
SMF4SIT  DC    4BL1'0'   STEP INITIATION TIME (IN 100THS SECONDS)
SMF4STID DC    PL4'0000' STEP INITIATION DATE (PACKED DECIMAL FORMAT)
SMF4NCI  DC    4BL1'0'   NUMBER OF CARD IMAGES IN DD DATA OR DD  *
*                        DATA SETS
SMF4SCC  DC    2BL1'0'   STEP COMPLETION CODE
SMF4PRTY DC    BL1'0'    PRIORITY AT WHICH STEP WAS DISPATCHED :
*                        ACTUAL PRIORITY=251-(15-USER PRIORITY)*16
SMF4PGMN DC    CL8' '    PROGRAM NAME
SMF4STMN DC    CL8' '    STEP NAME
SMF4RSH0 DC    2BL1'0'   REGION SIZE IN 1K BLKS REQUESTED IN HIERACHY0
SMF4RSH1 DC    2BL1'0'   REGION SIZE IN 1K BLKS REQUESTED IN HIERARCHY1
SMF4H0ST DC    4BL1'0'   HIERARCHY0 STORAGE USED
SMF4H1ST DC    4BL1'0'   HIERARCHY1 STORAGE USED
SMF4SPK  DC    1BL1'0'   STORAGE PROTECT KEY                     A40791
         DC    3BL1'0'   RESERVED                                A40791
SMF4AST  DC    4BL1'0'   DEVICE ALLOC START TIME                 A40791
SMF4PPST DC    4BL1'0'   PROBLEM PROGRAM START TIME              A40791
         DC    8BL1'0'   RESERVED                                A40791
SMF4LENN DC    2BL1'0'   LENGTH OF EXCP PORTION OF RECORD
*        FOR EACH DEVICE ASSIGNED TO EACH DATA SET THERE IS AN 8 BYTE
*        ENTRY HAVING THE FOLLOWING FORMAT:
*
SMF4DEVC DC    BL1'0'    DEVICE CLASS
SMF4UTYP DC    BL1'0'    UNIT TYPE
SMF4CUAD DC    2BL1'0'   CHANNEL AND UNIT ADDRESS
SMF4EXCP DC    4BL1'0'   COUNT OF EXCP'S ISSUED FOR THE DEVICE AND
*                        DATA SET
         ORG   SMF4DEVC
SMF4LNTH DC    BL1'0'    TOTAL LENGTH OF NEXT THREE FIELDS
SMF4SETM DC    3BL1'0'   STEP EXECUTION TIME (IN 100THS SECONDS)
SMF4NAF  DC    BL1'0'    NUMBER OF ACCOUNTING FIELDS
SMF4ACTF DS    0C        EXEC STATEMENT ACCT FIELDS(VARIABLE)    100000
*
*        EACH ENTRY FOR AN ACCOUNTING FIELD CONTAINS THE LENGTH OF THE
*        FIELD (1 BYTE,BINARY), FOLLOWED BY THE FIELD(EBCDIC).AN
*        OMITTED FIELD IS REPRESENTED BY A LENGTH INDICATOR OF 0.
         AIF   (&SW1 EQ 0).CONTB
.IFAS005 ANOP
         EJECT
* THIS RECORD IS WRITTEN AT  NORMAL OR ABNORMAL TERMINATION OF A JOB.
* RECORD LENGTH IS VARIABLE.
*
         DS    0F        ALIGN TO FULL WORD BOUNDARY
SMFRCD5  EQU   *         HEADER SEGMENT
SMF5LEN  DS    BL2'0'    RECORD LENGTH
SMF5SEG  DS    BL2'0'    SEGMENT DESCRIPTOR
SMF5RSV  DC    BL1'0'    RESERVED
SMF5RTY  DC    BL1'0'    RECORD TYPE 5
SMF5TME  DC    4BL1'0'   TOD USING FORMAT FROM TIME MACRO W/BIN. INTVL.
SMF5DTE  DC    PL4'0000' DATE, PACKED DEC. FORM : OOYYDDDF(F IS A SIGN)
SMF5SID  DC    2CL1' '   SYSTEM IDENTIFICATION
SMF5MOD  DC    2CL1' '   MODEL NUMBER                            100000
SMF5JBN  DC    8CL1' '   JOB NAME
SMF5RST  DC    4BL1'0'   READER START TIME FOR JOB (IN 100THS/SECONDS)
SMF5RSD  DC    PL4'0000' READER START DATE,PACKED DECIMAL FORMAT
SMF5UIF  DC    8CL1' '   USER IDENTIFICATION FIELD
SMF5NST  DC    BL1'0'    NUMBER OF STEPS IN THE JOB
SMF5JIT  DC    4BL1'0'   JOB INITIATION TIME (IN 100THS/SECONDS)
SMF5JID  DC    PL4'0000' JOB INITIATION DATE, PACKED DECIMAL FORMAT
SMF5NCI  DC    4BL1'0'   NUMBER OF CARD-IMAGE RECORDS IN DD DATA OR DD*
*                        DATA SETS
SMF5JCC  DC    2BL1'0'   JOB COMPLETION CODE
SMF5JPTY DC    BL1'0'    JOB PRIORITY
SMF5RSTT DC    4BL1'0'   READER STOP TIME FOR JOB (IN 100THS/SECONDS)
SMF5RSTD DC    PL4'0000' READER STOP DATE FOR JOB (IN PACKED DEC.FORM)
SMF5JBTI DC    BL1'0'    JOB TERMINATION INDICATOR
*                        BIT 0 - RESERVED
*
*                           1-CANCELLED AT EXIT IEFUJV
*                           2-CANCELLED AT EXIT IEFUJI
*                           3-CANCELLED AT EXIT IEFUSI
*                           4-CANCELLED AT EXIT IEFACTRT
*                           5-RESERVED                           100000
*                           6-O=NORMAL COMPLETION
*                             1=ABEND
*                           7-RESERVED
SMF5SMCI DC    5BL1'0'   SYSOUT CLASSES AND MSGCLASS INDICATOR
SMF5CKRE DC    BL1'0'    CHECKPOINT/RESTART INDICATOR
*                        BITO-SYSTEM RESTART
*                         1,2-RESERVED
*                           3-CHECKPOINT TAKEN FOR STEP
*                           4-CHECKPOINT RESTART
*                           5-STEP RESTART
*                         6,7-RESERVED(MUST BE ZERO)
*
SMF5RDCL DC    BL1'0'    READER DEVICE CLASS
SMF5RUTY DC    BL1'0'    READER UNIT TYPE
SMF5JICL DC    CL1' '    JOB INPUT CLASS                         100000
SMF5SPK  DC    1BL1'0'   STORAGE PROTECT KEY                     A40791
         DC    19BL1'0'  RESERVED                                A40791
SMF5TLEN DC    BL1'0'    TOTAL LENGTH OF NEXT FOUR FIELDS
SMF5PRGN DC    20CL1' '  PROGRAMMER'S NAME
SMF5JCPU DC    3BL1'0'   JOB CPU TIME (IN 100THS/SECONDS)
SMF5ACTF DC    BL1'0'    NUMBER OF ACCOUNTING FIELDS
SMF5JSAF DS    0C        JOB STATEMENT ACCT FIELDS(VARIABLE)     100000
*
*        EACH ENTRY FOR AN ACCOUNTING FIELD CONTAINS THE LENGTH OF THE
*        FIELD(1 BYTE,BINARY),FOLLOWED BY THE FIELD (EBCDIC).AN OMITTED
*        FIELD IS REPRESENTED BY A LENGTH INDICATOR OF 0.
         AIF   (&SW1 EQ 0).CONTB
.IFAS006 ANOP
         EJECT
* THIS RECORD IS WRITTEN WHEN PROCESSING OF A SYSOUT CLASS IS COMPLETED
* FOR A JOB,AND WHEN THE FORM CHANGES WITHIN A CLASS. RECORD LENGTH IS
* 57 BYTES.
*
         DS    0F        ALIGN TO FULL WORD BOUNDARY
SMFRCD6  EQU   *         HEADER SEGMENT
SMF6LEN  DS    BL2'0'    RECORD LENGTH
SMF6SEG  DS    BL2'0'    SEGMENT DESCRIPTOR
SMF6RSV  DC    BL1'0'    RESERVED
SMF6RTY  DC    BL1'0'    RECORD TYPE 6
SMF6TME  DC    4BL1'0'   TOD, USING FORMAT FROM TIME MACRO W/BIN. INTVL
SMF6DTE  DC    PL4'0000'      DATE IN PACKED DECIMAL FORM: 00YYDDDF
*                             ( F IS A SIGN)
SMF6SID  DC    2CL1' '   SYSTEM IDENTIFICATION
SMF6MOD  DC    2CL1' '   MODEL NO.
SMF6JBN  DC    8CL1' '  JOB NAME
SMF6RST  DC    4BL1'0'  READER START TIME
SMF6RSD  DC    PL4'0000' READER START DATE ; 00YYDDDF
SMF6UIF  DC    CL8' '   USER ID FIELD
SMF6OWC  DC    CL1' '   OUTPUT WRITER CLASS
SMF6WST  DC    4BL1'0'  WRITER START TIME
SMF6WSD  DC    PL4'0000' WRITER START DATE
SMF6NLR  DC    4BL1'0'  NUMBER OF LOGICAL RECORDS FOR THE WRITER
*                       PER FORM NUMBER PER CLASS
SMF6IOE  DC    BL1'0'   IO ERROR INDICATOR:
*                       BIT0 - RESERVED                          100000
*                       BIT1 - RESERVED                          100000
*                       BIT2 - RESERVED                          100000
*                       BIT3 - RESERVED                          100000
*                       BIT4 - I/O DISCONTINUED                  100000
*                              (REMOTE OUTPUT ONLY)              100000
*                       BIT5 - INPUT ERROR                       100000
*                       BIT6 - OUTPUT ERROR                      100000
*                       BIT7 - INPUT ERROR ON SYS1.SYSJOBQE      100000
SMF6NDS  DC    BL1'0'   NUMBER OF DATA SETS PROCESSED  BY THE OUTPUT
*                       WRITER FOR THE JOB
SMF6FMN  DC    4CL1' '  FORM NUMBER
         AIF   (&SW1 EQ 0).CONTB
.IFAS007 ANOP
         EJECT
* THIS RECORD IS WRITTEN WHEN AN SMF DATA SET BECOMES AVAILABLE
* FOLLOWING THE UNAVAILABILITY OF AN SMF DATA SET. RECORD LENGTH IS
* 24 BYTES.
*
         DS    0F        ALIGN TO FULL WORD BOUNDARY
SMFRCD7  EQU   *         HEADER SEGMENT
SMF7LEN  DS    BL2'0'    RECORD LENGTH
SMF7SEG  DS    BL2'0'    SEGMENT DESCRIPTOR
SMF7RSV  DC    BL1'0'    RESERVED
SMF7RTY  DC    BL1'0'    RECORD TYPE 7
SMF7TME  DC    4BL1'0'   TOD, USING FORMAT FROM TIME MACRO W/BIN. INTVL
SMF7DTE  DC    PL4'0000'      DATE IN PACKED DECIMAL FORM: 00YYDDDF
*                             ( F IS A SIGN)
SMF7SID  DC    2CL1' '   SYSTEM IDENTIFICATION
SMF7MOD  DC    2CL1' '   MODEL NO.
SMF7NRO  DC    2BL1'0'  NUMBER OF SMF RECORDS OMITTED FROM DATA SET
SMF7STM  DC    4BL1'0'  STARTING TIME IN HUNDREDTHS OF SECONDS AT
*                       WHICH NO DATA WAS AVAILABLE FOR RECORDING
*              SMF RECORDS
SMF7STD  DC    PL4'0000' STARTING DATE AT WHICH NO DATA WAS      100000
*                       AVAILABLE FOR RECORDING SMF RECORDS
         AIF   (&SW1 EQ 0).CONTB
.IFAS008 ANOP
         EJECT
* THIS RECORD IS WRITTEN AFTER COMPLETION OF IPL, FOLLOWING THE SET
* DATE COMMAND. RECORD LENGTH IS VARIABLE.
*
         DS    0F        ALIGN TO FULL WORD BOUNDARY
SMFRCD8  EQU   *         HEADER SEGMENT
SMF8LEN  DS    BL2'0'    RECORD LENGTH
SMF8SEG  DS    BL2'0'    SEGMENT DESCRIPTOR
SMF8RSV  DC    BL1'0'    RESERVED
SMF8RTY  DC    BL1'0'    RECORD TYPE 8
SMF8TME  DC    4BL1'0'   TOD USING FORMAT FROM TIME MACRO W/BIN. INTVL.
SMF8DTE  DC    PL4'0000' DATE IN PACKED DEC.FORMAT: OOYYDDDF
SMF8SID  DC    2CL1' '   SYSTEM IDENTIFICATION
SMF8MOD  DC    2CL1' '   MODEL NUMBER
SMF8LENN DC    2BL1'0'   LENGTH OF FIELD
*        FOR EACH DEVICE ONLINE THERE IS A FOUR-BYTE ENTRY HAVING THE
*        FOLLOWING FORMAT:
SMF8IODV DS    4BL1'0'   RESERVE FOUR BYTE AREA FOR EACH DEVICE  100000
*              BYTE 0 - DEVICE CLASS
*                   1 - UNIT TYPE
*                   2 - CHANNEL ADDRESS
*                   3 - UNIT ADDRESS
         AIF   (&SW1 EQ 0).CONTB
.IFAS009 ANOP
         EJECT
* THIS RECORD IS WRITTEN WHEN A VARY ONLINE COMMAND IS PROCESSED.
* RECORD LENGTH IS VARIABLE.
*
         DS    0F        ALIGN TO FULL WORD BOUNDARY
SMFRCD9  EQU   *         HEADER SEGMENT
SMF9LEN  DS    BL2'0'    RECORD LENGTH
SMF9SEG  DS    BL2'0'    SEGMENT DESCRIPTOR
SMF9RSV  DC    BL1'0'    RESERVED
SMF9RTY  DC    BL1'0'    RECORD TYPE 9
SMF9TME  DC    4BL1'0'   TOD USING FORMAT FROM TIME MACRO W/BIN. INTVL.
SMF9DTE  DC    PL4'0000' DATE IN PACKED DEC. FORM: OOYYDDDF
SMF9SID  DC    2CL1' '   SYSTEM IDENTIFICATION
SMF9MOD  DC    2CL1' '   MODEL NUMBER
SMF9LENN DC    2BL1'0'   LENGTH OF THE FIELD
SMF9DVAD DS    4BL1'0'   DEVICES BEING ADDED TO THE I/O          100000
*                        CONFIGURATION (VARIABLE,BINARY)         100000
*        FOR EACH DEVICE BEING ADDED THERE IS A FOUR BYTE ENTRY HAVING
*        THE FOLLOWING FORMAT:
*                        BYTE 0-DEVICE CLASS
*                             1-UNIT TYPE
*                             2-CHANNEL ADDRESS
*                             3-UNIT ADDRESS
         AIF   (&SW1 EQ 0).CONTB
.IFAS010 ANOP
         EJECT
* THIS RECORD IS WRITTEN AFTER SUCCESSFUL ALLOCATION. RECORD LENGTH
* IS VARIABLE.
*
         DS    0F        ALIGN TO FULL WORD BOUNDARY
SMFRCD10 EQU   *         HEADER SEGMENT
SMF10LEN DS    BL2'0'    RECORD LENGTH
SMF10SEG DS    BL2'0'    SEGMENT DESCRIPTOR
SMF10RSV DC    BL1'0'    RESERVED
SMF10RTY DC    BL1'0'    RECORD TYPE 10
SMF10TME DC    4BL1'0'   TOD USING FORMAT FROM TIME MACRO W/BIN. INTVL.
SMF10DTE DC    PL4'0000' DATE IN PACKED DEC. FORM: OOYYDDDF
SMF10SID DC    2CL1' '   SYSTEM IDENTIFICATION
SMF10MOD DC    2CL1' '   MODEL NUMBER
SMF10JBN DC    8CL1' '   JOB NAME
SMF10RST DC    4BL1'0'   READER START TIME
SMF10RSD DC    PL4'0000' READER START DATE
SMF10UIF DC    8CL1' '   USER  IDENTIFICATION FIELD
SMF10LN  DC    2BL1'0'   LENGTH OF THE FIELD
SMF10DEV DS    4BL1'0'   DEVICES BEING MADE AVAILABLE (VARIABLE) 100000
*
*FOR EACH DEVICE THERE IS A   4 -BYTE ENTRY HAVING THE FOLLOWING FORMAT
*                        BYTE 0-DEVICE CLASS
*                             1-UNIT TYPE
*                             2-CHANNEL ADDRESS
*                             3-UNIT ADDRESS
         AIF   (&SW1 EQ 0).CONTB
.IFAS011 ANOP
         EJECT
* THIS RECORD IS WRITTEN WHEN A VARY OFFLINE COMMAND IS PROCESSED.
* RECORD LENGTH IS VARIABLE.
*
         DS    0F        ALIGN TO FULL WORD BOUNDARY
SMFRCD11 EQU   *         HEADER SEGMENT
SMF11LEN DS    BL2'0'    RECORD LENGTH
SMF11SEG DS    BL2'0'    SEGMENT DESCRIPTOR
SMF11RSV DC    BL1'0'    RESERVED
SMF11RTY DC    BL1'0'    RECORD TYPE 11
SMF11TME DC    4BL1'0'   TOD USING FORMAT FROM TIME MACRO W/BIN. INTVL.
SMF11DTE DC    PL4'0000' DATE IN PACKED DEC. FORM: OOYYDDDF
SMF11SID DC    2CL1' '   SYSTEM IDENTIFICATION
SMF11MOD DC    2CL1' '   MODEL NUMBER
SMF11LN  DC    2BL1'0'   LENGTH OF THE FIELD
SMF11DEV DC    4BL1'0'   DEVICES BEING REMOVED FROM I/O CONFIGURATION
*
* FOR EACH DEVICE BEING REMOVED, THERE IS A 4-BYTE ENTRY HAVING THE
* FOLLOWING FORMAT:
*              BYTE O-DEVICE CLASS
*                   1-UNIT TYPE
*                   2-CHANNEL ADDRESS
*                   3-UNIT ADDRESS
         AIF   (&SW1 EQ 0).CONTB
.IFAS012 ANOP
         EJECT
* THIS RECORD IS WRITTEN WHEN THE HALT COMMAND IS PROCESSED. RECORD
* LENGTH IS 18 BYTES.                                            100000
         DS    0F        ALIGN TO FULL WORD BOUNDARY
SMFRCD12 EQU   *         HEADER SEGMENT
SMF12LEN DS    BL2'0'    RECORD LENGTH
SMF12SEG DS    BL2'0'    SEGMENT DESCRIPTOR
SMF12RSV DC    BL1'0'    RESERVED                                100000
SMF12RTY DC    BL1'0'    RECORD TYPE 12
SMF12TME DC    4BL1'0'   TOD, USING FORMAT FROM TIME MACRO W/BIN. INTVL
SMF12DTE DC    PL4'0000'      DATE IN PACKED DECIMAL FORM: 00YYDDDF
*                             ( F IS A SIGN)
SMF12SID DC    2CL1' '   SYSTEM IDENTIFICATION
SMF12MOD DC    2CL1' '   MODEL NO.
SMF12SWT DC    4BL1'0'   SYSTEM WAIT TIME IN HUNDREDTHS OF SECONDS
*                        SINCE LAST TYPE1 RECORD
         AIF   (&SW1 EQ 0).CONTB
.IFAS013 ANOP                                                    100000
         EJECT                                                   100000
* THIS RECORD IS WRITTEN WHEN DYNAMIC STORAGE CONFIGURATION      100000
* TAKES PLACE IN MFT. RECORD LENGTH IS VARIABLE                  100000
         DS    0F        ALIGN TO FULL WORD BOUNDRY              100000
SMFRCD13 EQU   *         HEADER SEGMENT                          100000
SMF13LEN DS    BL2'0'    RECORD LENGTH                           100000
SMF13SEG DS    BL2'0'    SEGMENT DESCRIPTOR                      100000
SMF13RSV DC    BL1'0'    RESERVED                                100000
SMF13RTY DC    BL1'0'    RECORD TYPE 13                          100000
SMF13TME DC    4BL1'0'   TOD, USING FORMAT FROM TIME MACRO       100000
*                        WITH BINARY INTERVAL                    100000
SMF13DTE DC    PL4'0000' DATE IN PACKED DECIMAL FORM: 00YYDDDF   100000
*                        ( F IS A SIGN )                         100000
SMF13SID DC    2CL1' '   SYSTEM ID                               100000
SMF13MOD DC    2CL1' '   MODEL NO.                               100000
SMF13LTH DC    2BL1'0'   LENGTH OF PARTITION SECTION             100000
* THE FOLLOWING 10 BYTE SECTION IS PRODUCED FOR EACH PARTITION   100000
* ACTIVE WHEN DYNAMIC STORAGE CONFIGURATION TOOK PLACE.          100000
SMF13PN  DC    BL1'0'    PARTITION NUMBER                        100000
SMF13SH0 DC    2BL1'0'   HEIRARCHY 0 STORAGE                     100000
SMF13SH1 DC    2BL1'0'   HEIRARCHY 1 STORAGE                     100000
SMF13NJC DC    BL1'0'    NO OF JOB CLASSES                       100000
SMF13JC  DC    4CL1' '   JOB CLASSES FOR THIS PARTITION          100000
         AIF   (&SW1 EQ 0).CONTB                                 100000
         AIF   (&SW1 LT 4).TKEY                                  100000
.IFAS014 ANOP
         EJECT
* RECORD TYPE: 14- DATA SET OPENED FOR INPUT/RDBACK
*              15-DATA SET OPENED FOR OUTPUT/INOUT/OUTIN/UPDAT
         DS    0F        ALIGN TO FULL WORD BOUNDARY
SMF14HDR EQU   *         HEADER SEGMENT FOR RECORD TYPE 14/15
SMF14LEN DS    BL2'0'    RECORD LENGTH
SMF14SEG DS    BL2'0'    SEGMENT DESCRIPTOR
SMF14RSV DS    BL1'0'    RESERVED
SMF14RTY DS    BL1'0'    RECORD TYPE 14
SMF14TME DS    BL4'0'    TOD, USING TIME MACRO W/BIN. INTVL.
SMF14DTE DS    PL4'0000' DATE, PACKED/DEC FORM; 00YYDDDF
SMF14SID DS    CL2' '    SYSTEM ID
SMF14MOD DS    CL2' '    MODEL NO.
SMF14JBN DS    CL8' '    JOB NAME
SMF14RST DS    BL4'0'    READER START TIME
SMF14RSD DS    PL4'0000' READER START DATE, PK/DEC FORM: 00YYDDDF
SMF14UID DS    CL8' '    USERID
SMF14RIN DS    BL2'0'    RECORD INDICATORS:
SMF14RV0 EQU   128       RESERVED
SMF14EOV EQU   64        RECORD WRITTEN BY EOV
SMF14DAD EQU   32        DASD DEVICE
SMF14TDS EQU   16        TEMPORARY DATA SET
SMF14DDA EQU   8         DCBDSORG = DA
SMF14IS  EQU   4         DCBDSORG = IS
SMF14JIS EQU   2         JFCDSORG = IS
SMF14ESV EQU   1         ESV INCLUDED
*        BITS 8 - 15     RESERVED
SMF14SDC DS    BL1'0'    SIZE OF DCB/DEB SEGMENT
SMF14NUC DS    BL1'0'    NO. UCB SEGMENTS
SMF14SUC DS    BL1'0'    SIZE OF EACH UCB SEGMENT
SMF14SET DS    BL1'0'    SIZE OF EXTENSION SEGMENT
SMF14RV1 DS    BL4'0'    RESERVED
SMFTIOT  EQU   *         TIOT SEGMENT (FROM DD ENTRY)
SMFTIOE1 DS    BL1'0'    TIOELNGH
SMFTIOE2 DS    BL1'0'    TIOESSTA
SMFTIOE3 DS    BL1'0'    TIOEWTCT
SMFTIOE4 DS    BL1'0'    TIOELINK
SMFTIOE5 DS    BL8'0'    TIOEDDNM
SMFTIOE6 DS    BL3'0'    TIOEJFCB
SMFTIOE7 DS    BL1'0'    TIOESTTC
*
SMFJFCB1 DS    XL176'0'  JFCB SEGMENT (ENTIRE JFCB)
*
SMFDCBDE EQU   *         DCB/DEB SEGMENT (TAPE AND DASD)
SMFDCBOR DS    BL2'0'    DCBDSORG
SMFDCBRF DS    BL1'0'    DCBRECFM
SMFDCBMF DS    BL2'0'    DCBMACRF
SMFDCBFL DS    BL1'0'    DCBOFLGS
SMFDCBOP DS    BL1'0'    DCBOPTCD
SMF14RV2 DS    BL1'0'    RESERVED
SMFDEBFL DS    BL1'0'    DEBOFLGS
SMFDEBOP DS    BL1'0'    BEBOPATB
SMFDEBVL DS    BL2'0'    DEBVOLSQ
SMFTDDEX EQU   *         TAPE DCB/DEB EXTENSION
SMFDCBBL DS    BL4'0'    DCBBLKCT
SMFDSSNO DS    BL6'0'    DATA SET SERIAL NUMBER
SMF14RV3 DS    BL2'0'    RESERVED
         ORG   SMFTDDEX
SMF14NTU DS    BL4'0'    NUMBER OF TRACKS USED
SMF14NTR DS    BL4'0'    NUMBER OF TRACKS RELEASED BY DADSM RELSE RTN
SMF14NER DS    BL1'0'    NUMBER OF EXTENTS RELEASED
SMF14RV4 DS    BL3'0'    RESERVED
SMF14UCB EQU   *         UCB SEGMENT(ONE FOR EACH UCB FOR THE DATA SET)
SMFUCBCH DS    BL1'0'    UCBCHA
SMFUCBUA DS    BL1'0'    UCBUA
SMFSRTEV DS    BL6'0'    SRTEVOLI
SMFUCBTY DS    BL4'0'    UCBTYP
SMFSRTES DS    BL1'0'    SRTESTAB
SMF14NEX DS    BL1'0'    NUMBER EXTENTS
SMF14RV5 DS    BL2'0'    RESERVED
SMFEXCP  DS    BL4'0'    EXCP COUNT
SMFTAPEX EQU   *         SMF TAPE EXTENSION