         MACRO
&NAME    IFDCOM
         LCLC  &V,&X,&Z
&V       SETC  'DS'
&X       SETC  'C'
&Z       SETC  ' '
         EJECT
         AIF   (T'&NAME EQ 'O').SKP1
&NAME    DSECT
         IFDPF1 &V,&X,&Z
         EJECT
         CSECT
         MEXIT
.SKP1    ANOP
         MNOTE 8,'NAME FIELD MISSING, NO STATEMENTS GENERATED'
         MEND
