         MACRO
&NAME    IFDMOD &LOAD=,&CALL=,&DELETE=,&LIST=,&C=2
&NAME    BRING LOAD=&LOAD,CALL=&CALL,DELETE=&DELETE,LIST=&LIST,C=&C
         MEND
