         MACRO
&NAME    IGGDCBFA
&NAME    DSECT
DFATDC   DS    BL2                      DCBTDC
DFARORG3 DS    BL4                      DCBRORG3
DFANREC  DS    BL4                      DCBNREC
DFAST    DS    BL1                      DCBST
DFALPDA  DS    BL8                      DCBLPDA
DFANBOV  DS    BL2                      DCBNBOV
DFARORG2 DS    BL2                      DCBRORG2
DFANOREC DS    BL2                      DCBNOREC
DFALIOV  DS    BL8                      DCBLIOV
DFARORG1 DS    BL2                      DCBRORG1
         DS    0F
DFAUSE   DS    BL4                      USE COUNT OF DCBFA
DFAID    DS    BL8                      IDENTIFIER FOR DATA SET
DFACHAIN DS    BL4                      ADDR OF NEXT FA IN CHAIN
DFAEND   EQU   *                        END OF FIELD AREA
DFASIZE  EQU   DFAEND-DCBFA             SIZE OF FIELD AREA
         MEND
