         MACRO
&NAME    IGGLOAD
.*         RELEASE 22 DELETIONS/CHANGES
.*         RELEASE 21 DELETIONS/CHANGES
.*         RELEASE 20 DELETIONS/CHANGES
***********************************************************************
* ISLCOMON REFERENCE  C(DCBWKPT1)=A(ISLCOMON)                         *
***********************************************************************
*
&NAME    DSECT
         DS    0D
ISLECBA  DS    A                        FOR CP18 AND CP20
ISLIOBA  DS    CL40
ISLECBB  DS    A                        FOR CP21
ISLIOBB  DS    CL40
ISLECBC  DS    A                        FOR CP19
ISLIOBC  DS    CL40
ISLAREAZ DS    CL88                     FOR CP19
ISLIXLT  DS    CL104                    INDEX LOCATION TABLE
ISLNIRT  DS    CL3                      HHR OF DUMMY TRACK INDEX
ISLHIRT  DS    CL1                      NO INDX ENT ON PRIM DATA TRACK
ISLCBF   DS    F                        BUF CTRL PTR (RCD WITHIN BUF)
ISLBMPR  DS    F                        USED TO BUMP CBF TO NEXT RCD
ISLFBW   DS    F                        NO OF BUFS SCHED TO WRITE
ISLEOB   DS    F                        END OF BUFFR ADR
ISLNCNT  DS    CL8                      NORMAL IX COUNT, CCHHRKDD
ISLOCNT  DS    CL8                      OVFLOW IX COUNT, CCHHRKDD
ISLDCNT  DS    CL8                      DUMMY IX COUNT, CCHHRKDD
ISLNDAT  DS    CL10                     NORMAL IX DATA, MBBCCHHRFP
         DS    CL2
ISLODAT  DS    CL10                     OVFLOW IX DATA, MBBCCHHRFP
         DS    CL1
ISLBUFNO DS    CL1                      DCBBUFNO OR 2
ISLBUFN  DS    F                        ADDR OF SLOT N IN BCT
ISLMVC   DS    F                        COUNT OF EXECUTED MOVE (N-1)
ISLMVCT  DS    F                        NOMBR OF 255 BYTE MOVES (N+1)
ISLVRSAV DS    18F                      ISL SAVE AREA
ISLAPSAV DS    10F                      APPENDAGE SAVE AREA
ISLWRSAV DS    16F                      ISL SAVE AREA FOR CLOSE
*
TSTWK1C  DS    F                        RESERVED AREA
TSTWK2C  DS    F                        RESERVED AREA
TSTWK3C  DS    F
ISLNOENT DS    F                        NO ENTRIES REMAINING ON TRACK
ISLOFFST DS    F                        SIZE OF WR CKD INSTR IN BYTES
ISLD     DS    F                        DISPLACEMENT FROM CP18 START
ISLFSTBF DS    F                        ADDR OF 1ST SCHED BUF (REL)
ISLLSTBF DS    F                        ADDR OF LAST SCHED BUF (REL)
ISLCCFAD DS    F                        ADDR OF CC FLAG IN CP18
ISLKEYAD DS    F                        ADDR OF KEY OF LAST RCD ON TRK
*
ISLF8AD  DS    F                        ADDR OF PUT ISLF800
ISLFXAD  DS    F                        ADDR OF PJT ISLFY01
ISLFYAD  DS    F                        ADDR OF PUT ADDR OF PUT ISLFZ01
ISLFZAD  DS    F                        ADDR OF PUT ISLPA01
ISLPAAD  DS    F                        ADDR OF APP ISLF110
ISLF1AD  DS    F
* ISLVPTRS REFERENCE  C(DCBWKPT6)=A(ISLVPTRS)
*
ISLVPTRS EQU   *
ISLVPTR1 DS    A                        A(AREA Y)
ISLVPTR2 DS    A                        A(KEYSAVE)
ISLVPTR3 DS    A                        A(IOBBCT) BUF CTRL TBL ADR
ISLVPTR4 DS    A                        A(CP18)
ISLVPTR5 DS    A                        A(CP19)
ISLVPTR6 DS    A                        A(CP20)
ISLVPTR7 DS    A                        A(CP21)
ISLVPTR8 DS    A                        SIZE OF ISLCOMON AREA
ISLVPTR9 DS    A                        SIZE OF CHAN PROG AREA
ISLVPTRA DS    A                        A(TRACK INDEX SAVE AREA)
*                                       BIT 0--FULL TRK INDX WRITE
*                                       BIT 1--SUCCESSFUL GETMAIN
ISLVPTRB DS    A                        A(CP20B)--FULL TRK INDX WR
ISLVPTRC DS    A                        A(CP20C)--FULL TRK INDX WR
ISLFXWK1 DS    F                        WORK AREA
ISLFXWK2 DS    F                        WORK AREA
ISLF9WK1 DS    F                        WORK AREA
*
ISLIGAP  DS    H                        NON LAST RCD OVHD
ISLLGAP  DS    H                        LAST RCD OVHD
ISLRPSSS DS    F                        SECTORS FOR CP18,19,20,21
ISLCSIZE EQU   *-&NAME                  SIZE OF COMMON WORK AREA
*
         MEND
