         MACRO
&NAME    IGGWKNCP &OPTCD=
         GBLB   &CPOPS
.*          RELEASE 23 DELETIONS/CHANGES
.*          RELEASE 22 DELETIONS/CHANGES
.*          RELEASE 21 DELETIONS/CHANGES
         AIF    (&CPOPS).NOCPOPS
&CPOPS   SETB   1
         IGGCPOPS
.NOCPOPS ANOP
&NAME    DSECT
CP1      DS     0D
         IGGCP1
         ORG    &NAME
CP2      DS     0D
         IGGCP2
         ORG  &NAME
CP8      DS    0D
         IGGCP8 OPTCD=&OPTCD
         AIF   ('&OPTCD' EQ 'V' OR '&OPTCD' EQ 'VW').SKIP10B
CP10B    DS    0D
         IGGCP10B OPTCD=&OPTCD
.SKIP10B ANOP
CP14     DS    0D
         IGGCP14 OPTCD=&OPTCD
CP15     DS    0D
         IGGCP15
CP16     DS    0D
         IGGCP16  OPTCD=&OPTCD
CP17     DS    0D
         IGGCP17 OPTCD=&OPTCD
         AIF   ('&OPTCD' EQ 'V' OR '&OPTCD' EQ 'VW').SKIP10A
CP10A    DS    0D
         IGGCP10A OPTCD=&OPTCD
.SKIP10A ANOP
         MEND
