         MACRO
&NAME    IHEPRV &A,&B,&OP=L
         LCLC  &C,&D
&C       SETC  'PWR'
&D       SETC  'LCA'
         AIF   (T'&B EQ 'O').AIF1
&C       SETC  '&B'
.AIF1    AIF   (T'&A EQ 'O').INSTR
&D       SETC  '&A'
.INSTR   ANOP
*        + + + + + + + + + + + + + + + + + + + + + + + + + +*PRV001-TSS
&NAME    &OP   &C,*-*(PR)
         ORG   *-2
         DC    QL2(IHEQ&D)
*        - - - - - - - - - - - - - - - - - - - - - - - - - - PRV001-TSS
         MEND
