         MACRO
&NAME    IHESDR &A,&B
         LCLC  &C,&D
&C       SETC  'LW0'
&D       SETC  'PWR'
         AIF   (T'&A EQ 'O').AIF2
&C       SETC  '&A'
.AIF2    AIF   (T'&B EQ 'O').INSTR
&D       SETC  '&B'
.INSTR   ANOP
&NAME    IHEPRV &C,&D
         ST    DR,OFDR(&D)
         LR    DR,&D
         MEND
