         MACRO
&NAME    INSERT &A,&B,&REC=,&FTYPE=
         GBLA  &RAFIOPR,&RAFIORG
         GBLC  &RAFIOC1
         VALARG (&A,&B),(2,S,M,3,,A,B),(&REC,&FTYPE),(2,,PREVIOUS,     X
               3,,GBL,XGBL)
         RAFIOXK ,&B
         RAFIOARG (&A,&RAFIOC1.1,&REC,&FTYPE,NEXT,INSERT)
&NAME    LA    &RAFIORG,&RAFIOPR
         RCALL AFIO
         MEND
