         MACRO
&NAME    IOGENER  &GEN=
* ****************** MICROFICHE FLAGS *********************** SUPT CODE
* A079500-081500                                                 S22027
* A269510-269560,274050-274450,298975-298995,356570-356920       S99228
* A363070-363420,443210-443280,656050-656400,749600-749900       S99228
* A788000-790000,786840-796960,823600-823700,902330-902450,907700S99228
* A175200,322560,322680-322920,810000-812800                     S22029
* C165800-165850,272000-272300                                   S99228
* D162000                                                        S99228
* A175200,322560,322680-322860,808560,808680-808860              S22029
* C172000-173000                                                 S22029
* D176000                                                        S22029
* A272430-273034,653946-653994,744502-744512,                    S22028
* A901020-901160,907600,933800                                   S22028
* C273035-273036,648500                                          S22028
* D298512,298520-298929                                          S22028
* A259920                                                        A44890
* C061500,259530                                                 A44890
* A759000                                                         M1582
* C061500                                                         M1582
* A818000                                                         M6293
* C061500,805700-809000                                           M6293
* A165700,219200,378500,385500,402500,450700                     S21101
* C061500,194500-197500                                          S21101
* D157500,404000                                                 S21101
* A161500                                                         M5953
* C061500                                                         M5953
* C061500,086500                                                 A41024
* A073500,096200,100500-101000,105500-106500,444000,921500       A41027
* C061500,082500,084200,085500,091000,095000,097500,099000,      A41027
* D076000,079500-081500,107000                                   A41027
* A875000,876500,934500                                          A50191
* A280700,286000,290500,460500,744980,460640,460850              A48245
* C280700,727700                                                 A48245
* D459700,779700,585700                                          A48245
* C061500,106500-106600                                          A48273
* A442001-442005,473520-473900,934550                            A48276
* D460570-460920                                                 S22026
* A092080-092400,095540-095660,143520-143880,469550-469950       S22026
* A623060-623420,907580-907900,934200,949200                     S22026
* A312900,764500                                                 S22025
* C311500,767500,769500                                          S22025
* C061500                                                        S22025
* D460500,465200,460570-460640,460850                            S22025
* A341500                                                       SA56889
* A402915                                                       SA53632
* A205500,207000                                                SA55383
* A106700                                                       SA53628
* A356500,382500                                                SA55925
* C390500                                                       SA55925
* A026000,035000,491500,919500                                  SA57685
* C872500,937500,001999                                         SA57685
* D001500-001998                                                SA57685
* C005500-006500,934550                                         SA59501
* C347000,350000                                                SA60341
* A312920                                                       SA59034
* C219420,253500-254000                                         SA59034
* A201700,202500,859500                                         SA61781
* D341600-341700                                                SA62991
* A139300,140500                                                SA65910
*  RENUMBERED  269000-272850                                    SA68050
* A901080,933800,938420,947460                                  SA68050
* A470500                                                       SA69087
* D072500,152000,156500,184000,190000,198500,242000,272360       S21903
* D298995,340500,383200,447500,498000,776000,817200,854000       S21903
* D904000,923000,925000,926500,927000,927700,930000,938500       S21903
* D943440,943580-943620                                          S21903
* A813500                                                       SA64363
*A356640,379500                                                 SA69649
*C352000                                                        SA69649
*D352000-356500,394000                                          SA69649
* A269900                                                       OY03846
* C165800,269580,298975,356530,363070,442001,443205,473520      OY03846
* C848530,947580                                                OY03846
* D269200,271500,274050                                         OY03846
*A140700                                                        OY05148
.**********************************************************************
IEDQKA01 CSECT
&NAME    EQU   *
         ENTRY &NAME
         TITLE 'ACTIVATE (&NAME)- I/O GENERATOR SUBROUTINE (IEDQKA02)'
*                                                                     *
***********************************************************************
*                                                                     *
*  TITLE:  ACTIVATE AND IO GENERATOR SUBROUTINE (MIEDQKA)             *
*                                                                     *
         AIF   ('&GEN' NE 'MINI').TAG1                          SA59501
*  MODULE NAME = IEDQKD (MINI)                                        *
         AGO   .TAG5                                            SA59501
.TAG1    AIF   ('&GEN' NE 'STSP').TAG2                          SA59501
*  MODULE NAME = IEDQKC (STSP)                                        *
         AGO   .TAG5                                            SA59501
.TAG2    AIF   ('&GEN' NE 'BISC').TAG3                          SA59501
*  MODULE NAME = IEDQKB (BISC)                                        *
         AGO   .TAG5                                            SA59501
.TAG3    AIF   ('&GEN' NE 'QTAM').TAG4                          SA59501
*  MODULE NAME = IEDQKE (QTAM)                                        *
         AGO   .TAG5                                            SA59501
.TAG4    ANOP                                                   SA59501
*  MODULE NAME = IEDQKA (BOTH)(BLANK)                                 *
.TAG5    ANOP                                                   SA59501
*                                                                     *
*  DESCRIPTIVE NAME = ACTIVATE AND I/O GENERATOR ROUTINE              *
*                                                                     *
*  COPYRIGHT = 'NONE'                                                 *
*                                                                     *
*  STATUS:  CHANGE LEVEL 5                                            *
*                                                                     *
*FUNCTION -- THE FUNCTION OF THIS MODULE IS TO CONSTRUCT CHANNEL      *
*   PROGRAMS FOR INITIAL CONTACT, CONTINUE, AND RESET SEQUENCES.      *
*                                                                     *
*ENTRY POINTS --                                                      *
*   ACTIVATE                                                          *
*        CALLING SEQUENCE                                             *
*        L     R15,ADDR OF ACTIVATE                                   *
*        BR    R15                                                    *
*                                                                     *
*   I/O GENERATOR SUBROUTINE                                          *
*        L     12,ADDR OF I/O GENERATOR SUBROUTINE                    *
*        BALR  5,12                                                   *
*                                                                     *
*INPUT -- REGISTERS SET BY CALLER                                     *
*   FOR 'ACTIVATE' --                                                 *
*   R1  ADDR OF ERB OR BUFFER                                         *
*   R13 ADDR OF AVTSAVE2                                              *
*                                                                     *
*   FOR 'I/O GENERATOR' --                                            *
*   R13 ADDR OF AVTSAVE2                                              *
*   R2  LCB ADDRESS                                                   *
*   R5  RETURN ADDRESS                                                *
*                                                                     *
*OUTPUT -- REGISTERS AT EXIT                                          *
*   FOR 'ACTIVATE' --                                                 *
*   R11 DISPATCHER BASE                                               *
*   R13 ADDR OF AVTSAVE2                                              *
*                                                                     *
*   FOR 'I/O GENERATOR SUBROUTINE' --                                 *
*   R5  RETURN ADDRESS                                                *
*   R13 ADDR OF AVTSAVE2                                              *
*                                                                     *
*EXTERNAL ROUTINES --                                                 *
*   'IEDQTNT'-- USED TO CONVERT TWO BYTE TNT OFFSET TO TERMIANL       *
*   TABLE ENTRY ADDRESS.                                              *
*                                                                     *
*   SVC 0 -- EXCP                                                     *
*   SVC 35--WTO                                                SA57685*
*EXITS-NORMAL --                                                      *
*   'ACTIVATE' - RETURNS TO DISPATCHER TO DISPATCH NEXT READY STCB OR *
*   TO POST A CHAIN OF BUFFERS TO MH.                                 *
*                                                                     *
*   'I/O GENERATOR SUBROUTINE' - RETURNS TO CALLER                    *
*                                                                     *
*EXITS-ERROR -- NONE                                                  *
*                                                                     *
*TABLES/WORK AREAS -- DSECTS OF CONTROL BLOCKS AS EXPANDED BY MACROS  *
*        DCBD  DSORG=TX
*        TAVTD
*        TCCWD
*        TDEBD
*        TDISPD
*        TLCBD
*        TPRFD
*        TPRIOR
*        TQCBD
*        TQCBED
*        TSCBD
*        TSTCBD
*        TTSID
*        TTNTD
*        TTPD
*        TTRMD
*                                                                     *
*ATTRIBUTES                                                           *
*   'ACTIVATE' -- REUSABLE,REFRESHABLE                                *
*                                                                     *
*   'I/O GENERATOR SUBROUTINE' - RE-ENTRANT,REFRESHABLE - WHEN        *
*                                ENTERED FROM ACTIVATE.               *
*   PROBLEM PROGRAM MODE, ENABLED.  WHEN ENTERED FROM IGG019R0        *
*   -SUPERVISOR MODE, DISABLED.                                       *
*                                                                     *
*NOTES -- THE OPERATION OF THIS MODULE DOES NOT DEPEND UPON A         *
*   PARTICUALR INTERNAL REPRESENTATION OF THE EXTERNAL CHARACTER      *
*   SET.                                                              *
*                                                                     *
***********************************************************************
         EJECT
         ENTRY IEDQKA02
         DC    AL1(DSPMCPL2)            STCB OFFSET
         DC    AL1(0)
*    ACTIVATE IS ENTERED HERE WHEN GIVEN CONTROL BY THE DISPATCHER.   *
*
ACTIVATE EQU   *                        ENTRY PT FROM DISPATCHER
         SPACE 3
         USING *,15                     LINK REGISTER
         USING IHADCB,RDCB              DCB REGISTER
         USING IEDQTRM,RTERM            TERM ENTRY REGISTER
         USING AVTSAVE2,RAVT            AVT SAVE REGISTER
         USING IEDQLCB,RLCB             LCB REGISTER
         USING IEDQLCBX,RWKC            LCB EXTENSION ADDR       S99228
         USING IEDQCCW,RCCW             CCW REGISTER
         USING IEDQDISP,RSUPBASE        DISPATCHER BASE
         SPACE 3
* REGISTER DEFINITIONS
R0       EQU   0                        MODULE WORK REG
RPARM    EQU   1                        PARAMETER REG
RLCB     EQU   2                        LCB BASE
RTPCDE   EQU   3                        PTS TO CURR TP FIELD IN LCB
RDCB     EQU   4                        DCB BASE
R2       EQU   5                        WORK REGISTER
RWKA     EQU   6                        WORK REG
RWKB     EQU   7                        WORK REG
RTERM    EQU   8                        TERM ENTRY BASE
RWKC     EQU   9                        WORK REGISTER
RCCW     EQU   10                       CCW BASE
RSUPBASE EQU   11                       DISPATCHER BASE
RMOD     EQU   11                       PTS TO MODEL CCW'S
RBASE    EQU   12                       BASE ADDRESS FOR I/O GENERATOR
RAVT     EQU   13                       AVT BASE ADDRESS
REXPND   EQU   14                       LINK REG FOR EXPAND ROUTINE
RLNK1    EQU   15                       WORK REG
         EJECT
         STM   11,15,12(13)             SAVE REQUIRED REGISTERS
&NAME    IEDHJN ID                                               S22025
         LR    RLCB,RPARM               ERB ADDRESS
         TM    PRFTIC-IEDQPRF(RPARM),CCWTIC ERB OR BUFFER
         BZ    ITSERB                   BRANCH IF ERB
         L     RLCB,PRFLCB-1-IEDQPRF(RPARM) SET LCB BASE
         B     ITSLCB                   CONTINUE
ITSERB   EQU   *
         SH    RLCB,LCBBKUP             BACK UP TO LCB
ITSLCB   EQU   *
         L     RDCB,LCBDCBPT            DCB BASE
         AIF   ('&GEN' EQ 'BISC').L6
         AIF   ('&GEN' EQ 'MINI').L6
         AIF   ('&GEN' EQ 'QTAM').L6
         TM    LCBTSOB,LCBTSBUF         IS THIS A TS BUFFER?        TSO
         BZ    TSO1                     BRANCH ON NO                TSO
         L     RWKA,AVTTSOPT            GET ADDRESS OF TS SCHED     TSO
         L     RWKA,TSISCHED-IEDQTSI(,RWKA)                         TSO
         BAL   RTPCDE,24(RWKA)          BRANCH TO ROUTINE           TSO
TSO1     EQU   *                                                    TSO
.L6      ANOP
         LA    RBASE,BUILD              IOGEN SUBROUTINE            TSO
         BALR  R2,RBASE                 LINK TO IO GEN
         LM    11,15,12(13)             RESTORE REGISTERS
         MVC   LCBTTCIN,LCBTTBIN        TO BE CONNECTED IS NOW CON-
         SPACE 2                                                 A41027
         L     RWKB,DCBMH-1 .           GET MH -CB ADDRESS FOR POA41027
         SR    RWKC,RWKC .              CLEAR POST LIST FOR FINALA41027
*                                         EXIT TO DISPATCHER     A41027
         SPACE 2                                                 A41027
*        UNIT EXCEPTION BIT WILL BE SET WHEN AA CONTINUE OR ABORTA41027
* SEQUENCE CAN NOT BE SENT (EX. 1030, 2260L, ETC.)               A41027
         TM    LCBCSW+3,UNEX            NO RESTART ON CONTINUE
*                                         REQUEST
         BZ    NOTUNEX                  BRANCH NO
         SPACE
         L     RPARM,LCBLSPCI-1         BUFFER TO POST
         MVI   PRFPRI-IEDQPRF(RPARM),PRIMHBFR POST PRIORITY
         NI    PRFSTAT1-IEDQPRF(RPARM),PRFNLSTF 'LAST BUFFWR'
         ST    RWKB,PRFQCBA-1-IEDQPRF(RPARM) ST SET POST ADDRESS
         B     DSPPOST                  POST BUFFER TO MH
NOTUNEX  EQU   *
         AIF   ('&GEN' EQ 'STSP').Z0 .                           S22027
         AIF   ('&GEN' EQ 'MINI' OR '&GEN' EQ 'QTAM').Z0 .       S22027
         TM    LCBSTICS+1,CBRDCAST .    BROADCAST MESSAGES       S22027
         BO    EXITDSP .                BRANCH IF YES            S22027
.Z0      ANOP                                                    S22027
         TM    LCBSTAT2,LCBMSGNN        MSG GEN
         BO    EXITDSP .                BRANCH YES               A41027
         SPACE 2                                                 A41027
         TM    LCBSTAT1,LCBRECVN        RECEIVE STATE
         AIF   ('&GEN' NE 'MINI').Z1
         BO    EXITDSP .                YES                      A41027
         AGO   .Z2
.Z1      ANOP
         BZ    NOTRCV                   NO
         CLI   LCBCPA+24,CCWPOLL        AUTOPOLL IN USE
         BNE   EXITDSP .                NO                       A41027
         SPACE
*        WANT TO OPEN LIST FOR SEND STCB OR POLL DELAY           A41024
         CLI   DCBINTVL,AVTEZERO .      POLL DELAY  SPECIFIED    A41024
         BNE   ITSHERE .                BRANCH IF YES            A41024
         LA    RWKA,LCBSTCBA-5          RECEIVE STCB -4
         CLI   LCBRSKEY,BUFFVTO         BUFFERED LCB
         BNE   LOOPPOLL                 BRANCH IF NO
         SPACE
         LA    RWKA,LCBRSKEY            ADJUST FOR LOOP CONTROL
LOOPPOLL EQU   *
         L     RWKA,STCBLINK-1-IEDQSTCB(RWKA) NEXT STCB IN CHAIN
         CLI   STCBPRI-IEDQSTCB(RWKA),0 LAST STCB (QEVENT)
         BE    EXITDSP .                YES                      A41027
         CLI   STCBVTO-IEDQSTCB(RWKA),SENDVTO SEND STCB
         BE    ITSHERE                  YES
         AIF   ('&GEN' EQ 'MINI').CONC1A .                       S22026
         CLI   STCBVTO-IEDQSTCB(RWKA),CSVTO .                    S22026
*                                       CONC SCHEDULER           S22026
         BE    ITSHERE .                BRANCH IF YES            S22026
.CONC1A  ANOP .                                                  S22026
         CLI   STCBVTO-IEDQSTCB(RWKA),BUFFVTO BUFFERED SEND STCB
         BNE   LOOPPOLL                 NO TRY NEXT STCB
         SPACE
ITSHERE  EQU   *
         MVI   LCBCPA+32,CCWNOP         NOP FIRST TIC
         B     EXITDSP .                EXIT                     A41027
         SPACE 2                                                 A41027
NOTRCV   EQU   *
.Z2      ANOP
*                                                                A41027
*        FOR DEVICES THAT ARE NOT SELECTED BUFFERS ARE POSTED NOWA41027
         SPACE
         TM    LCBSTAT2,LCBRESP         POST BUFFER NOW
         BNZ   POST                     YES, CONVERSE RESPONSE
* INSTEAD OF LINE END APPENDAGE                                  A41027
*                                                                A41027
         TM    LCBSTICS+1,CBISYNC+CSTNCTL+CTWX CAN TERMINAL BE
*                                         SELECTED
         BNZ   EXITDSP .                NOT START STOP CONTENTIONA41027
         SPACE
         TM    LCBSTICS+2,CWTTA         WORLD TRADR
         BNZ   EXITDSP .                YES                      A41027
POST     EQU   *
         L     RWKA,LCBERBCH-1          ADDRESS OF FIRST BUFFER
         LR    RWKC,RWKA .              SAVE POINTER TO POST LISTA41027
LOOP     EQU   *
         ST    RWKB,AVTEZERO(,RWKA)     QCB ADDRESS FOR POST
         MVI   4(RWKA),PRIMHBFR         SET POST PRIORITY
         L     RWKA,4(,RWKA)            LINK ADDRESS NEXT BUFFER
         LA    RWKA,AVTEZERO(,RWKA)     CLEAR HI ORDER BYTE
         LTR   RWKA,RWKA                IS THERE A NEXT BUFFER
         BNZ   LOOP                     YES
         SPACE
         XC    LCBERBCH,LCBERBCH .      RESET FIELD FOR LATER USEA41027
         LR    RPARM,RWKC .             ASSUME LOCAL DEVICE      A41027
         TM    LCBSTICS+1,CLOCAL+CAUDIO . LOCAL DEVICE           A48273
         BNZ   DSPCHAIN .               BR YES, EXCP WILL BE     A48273
*                                         AT BUFFER ASSOCIATION  A41027
         TM    LCBSTICS+2,CNOIDLES      NO IDLES LOOP (2260R)   SA53628
         BO    DSPCHAIN                 BRANCH IF YES,EXCP DONE SA53628
*                                         BUFFER ASSOCIATION    SA53628
EXITDSP  EQU   *                                                 A41027
         SPACE
         LA    RPARM,LCBFLAG1 .         EXCP PARAMETER (IOB)     A41027
         SVC   EXCP                                              A41027
         SPACE 2                                                 A41027
         LR    RPARM,RWKC .             POST PARAMETER LIST      A41027
         B     DSPCHAIN .               EXIT TO POST BUFFERS OR  A41027
*                                         DISPATCH NEXT STCB     A41027
         EJECT
*        C O D I N G    T E C H N I Q U E S
         SPACE 1
*     THE CHANNEL PROGRAM CONSTRUCTED IS BASED UPON THE CHARACTER-
* ISTICS OF THE DEVICE (OBTAINED FROM THE DEVICE CHARACTERISTICS
* FOR THIS TERMINAL OR LINE ENTRY).  THE I/O GENERATOR SUBROUTINE
* TESTS CHARACTERISTICS BITS AND TRANSFERS CONTROL TO THE 'EXPAND'
* ROUTINE (DESCRIBED BELOW) PASSSING AN OFFSET INTO A MODEL CCW
* TABLE.
*  E. G. REXPND (REG14)=A(EXPAND)
*        BALR  RLNK1,REXPND
*        DC    AL2(MODCCW08-MODCCW)
*     THIS SEQUENCE BUILDS A DISABLE-ENABLE SEQUENCE.
*     THE MODEL CCW TABLE CONSISTS OF TWO BYTE ENTRIES.
* THE FIRST BYTE IS AN OFFSET INTO A SECOND TABLE (EXPANDER TABLE).
* THE SECOND BYTE CONTAINS THE CCW FLAGS FOR THE CCW BEING BUILT.
* THE EXPAND ROUTINE MOVES THE SPECIFIED FLAGS FOR THE CCW
* THE EXPAND ROUTINE MOVES THE SPECIFIED FLAGS INTO THE CCW AND
* UTILIZES THE ONE BYTE INDEX (FROM THE MODEL CCW TABLE) TO ACCESS
* THE FOLLOWING INFORMATION FROM THE EXPANDER TABLE:
*     EACH ENTRY IN THE EXPANDER TABLE HAS THE FOLLOWING FORMAT:
*        DC    AL2(OFFSET TO A ROUTINE THAT ESTABLISHES ADDRESS
*                  AND COUNT)
*        DC    AL1(CCWDISAB)            CCW OP CODE
*        DC    AL1(TPDISAB)             TP OP CODE
*     THE EXPAND ROUTINE PASSES CONTROL TO AN EXPANDER SUBROUTINE
* (BY BRANCHING TO ORGRTN INDEXED BY THE 2 BYTE OFFSET) THAT COM-
* PUTES CCWDATA ADDRESS AND COUNT.  UPON REGAINING CONTROL, THE
* EXPAND ROUTINE MOVES THE CCWOP CODE INTO THE CCW AND THE TP OP
* CODE INTO THE LCB FROM THE EXPANDER TABLE.
*     RETURNING AGIN TO THE EXAMPLE, THE FIRST CCW IN THE SEQUENCE
* (DISABLE) HAS BEEN BUILT.  A REGISTER IS ADJUSTED TO POINT TO THE
* ENTRY IN THE MODEL CCW TABLE AND A TEST IS PERFORMED FOR THE LAST
* ENTRY.  IF THIS IS NOT THE LAST ENTRY THE ABOVE ACTION IS PER-
* FORMED AGAIN TO CONSTRUCT THE NEXT CCW (THE ENABLE).  EXPAND RE-
* TURNS TO IN-LINE CODE OF THE I/O GENERATOR WHEN THE LAST ENTRY
* IS REACHED.
         SPACE 2
* CONTROL IS GIVEN TO BUILD WHEN ENTERED FROM AN APPENDAGE.           *
BUILD    EQU   *
IEDQKA02 EQU   *
         USING *,RBASE
         L     RDCB,LCBDCBPT
         LA    RWKA,LCBCPA+16           START ON 3RD CCW
         ST    RWKA,LCBSTART-1          PARAMETER FOR IOS
         NI    LCBCSW+3,AVTEFF-UNEX     RESET SWITCH
         LH    RWKC,LCBTTBIN            TERMINAL TO BE CONNECTED
         AIF   ('&GEN' EQ 'MINI').L7
         LTR   RWKC,RWKC                SPECIFIC CONNECTION
         BNZ   CONNECT1                 BRANCH YES
         TM    LCBSTAT2,LCBDIAL         DIAL LINE
         BZ    NONDIAL                  NO
         SPACE
         LH    RWKC,LCBLNENT            ADDRESS OF LINE ENTRY
         LTR   RWKC,RWKC                DO WE HAVE LINE ENTRY
         BNZ   CONNECT1                 BRANCH YES
         SPACE
NONDIAL  EQU   *
         SR    RTERM,RTERM              CLEAR FOR INDEXING
         IC    RTERM,LCBUCBX            RLN-1
         SLL   RTERM,2                  MULTIPLY FOR INDESX
         L     RTERM,DCBINVLI(RTERM)    ILIST FOR THIS LINE
         LA    RTERM,AVTEZERO(,RTERM)   CLEAR HI ORDER BYTE
         AIF   ('&GEN' EQ 'BISC' OR '&GEN' EQ 'QTAM').LAA1
         L     RWKA,LCBINVPT-1          CURRENT INVITATION LIST
         CLI   0(RWKA),X'FE'            IS THIS END OF LIST
         BE    LEND                    END OF LIST              SA65910
         CLI   1(RWKA),X'FE'           IS THIS END OF LIST      SA65910
         BNE   NOTEND                  BRANCH NO                SA65910
LEND     EQU   *                                                SA65910
         BNE   NOTEND                   BRANCH ON NO
.LAA1    ANOP
         BCTR  RTERM,0                  BACK UP
         BCTR  RTERM,0                  NOW TWO
         AIF   ('&GEN' EQ 'BISC' OR '&GEN' EQ 'QTAM').LAA2
         B     CONNECT0
NOTEND   EQU   *
         SR    RWKC,RWKC                CLEAR FOR IC
         IC    RWKC,2(RTERM)            ENTRY WIDTH
         BCTR  RWKC,0                   REDUCE BY ONE
         IC    RWKC,0(RWKA,RWKC)        GET ENTRY INDEX
         SLL   RWKC,1                   MULTIPLY BY TWO
         SR    RTERM,RWKC               GET ACTUAL ENTRY OFFSET
CONNECT0 EQU   *
.LAA2    ANOP
         LH    RWKC,AVTEZERO(,RTERM)    REPRESENATIVE ENTRY
         TM    LCBSTAT2,LCBMSGNN       IS THIS A MESSAGE GEN    SA65910
         BNO   CONNECT1                BRANCH NO                SA65910
         TM    LCBSTAT2,LCBDIAL         DIAL LINE               OY05148
         BO    CONNECT1                 YES, BRANCH             OY05148
         STH   RWKC,LCBTTBIN           REPRESENATIVE ENTRY      SA65910
CONNECT1 EQU   *
.L7      ANOP
         N     RWKC,AVTCLRHI            CLEAR NEGATIVE PROPAGATION
         L     RWKB,AVTRNMPT            ADDRESS OF TNT
         USING IEDQTNTD,RWKB
         BAL   RWKA,TNTDCODE            LNK TO ROUTINE
         DROP RWKB
         AIF   ('&GEN' EQ 'MINI').CONC2A .                       S22026
         TM    TRMDEVFL+1,TRMCONC .     CONC                     S22026
         BNO   NOTCONC .                BRANCH IF NO             S22026
         L     RWKA,TRMDESTQ-1 .        QCB ADDR                 S22026
         TM    QCBDSFLG-IEDQQCB(RWKA),QCBDRQQ .                  S22026
*                                       DATA READY QUE           S22026
         BO    NOTCONC .                BRANCH IF YES            S22026
         TM    LCBSTAT1,LCBSENDN .      LCB SENDING              S22026
         BNO   NOTSEND .                BRANCH IF NO             S22026
         TM    TRMDEVFL,X'20' .         ADDRESSING CHARS         S22026
         BO    NOTCONC .                BRANCH IF YES            S22026
NOTSEND  EQU   * .                                               S22026
         LH    RWKB,QCBEXTO-IEDQQCB(RWKA) .                      S22026
*                                       QCB EXTENSION OFFSET     S22026
         AR    RWKA,RWKB .              COMPUTE ADDR             S22026
         L     RTERM,QCBECONC-IEDQQCBE-1(RWKA) .                 S22026
*                                       CONC TERM ADDR           S22026
NOTCONC  EQU   * .                                               S22026
.CONC2A  ANOP .                                                  S22026
         LA    REXPND,EXPAND            SET-UP LINK FOR EXPAND
         LH    RWKA,TRMSIO              SIO COUNTER
         LA    RWKA,1(,RWKA)            BUMP
         STH   RWKA,TRMSIO              ST BACK
         SR    RWKA,RWKA                CLEAR WORK REGISTER
         IC    RWKA,TRMCHCIN            INDEX INTO CHARACTERISTIC
         BCTR  RWKA,R0                  DECREMENT FOR N-1TH ENTRY
         SLL   RWKA,2                   MULTIPLY FOR OFFSET
         A     RWKA,AVTCSTCS            ADD TABLE START
         MVC   LCBSTICS-1(4),0(RWKA)    CHARACTERISTICS TO LCB
         AIF   ('&GEN' EQ 'BISC').LA1
         AIF   ('&GEN' EQ 'MINI').LA1
         AIF   ('&GEN' EQ 'QTAM').LA1
         TM    LCBSTICS,C5041           1050/2741 LINE?             TSO
         BZ    TSO10                    NO                          TSO
         TM    LCBTSOB,LCB2741N         IS IT A 2741?               TSO
         BNO   S1050                    NO. USE 1050 CH'STICS       TSO
         MVC   LCBSTICS(3),D41STICS     2741 DEVICE CH'STICS        TSO
         B     TSO10                                                TSO
S1050    EQU   *                                                    TSO
         MVC   LCBSTICS(3),D50STICS     1050 CH'STICS               TSO
TSO10    EQU   *                                                    TSO
.LA1     ANOP
         TM    LCBSTAT1,LCBCONT         REQU%EST FOR CONTINUE
         BNZ   CONTINUE                 BRANCH YES
         MVI   LCBINCAM,AVTEZERO        RESET ERROR COUNTER
         SPACE
         TM    LCBSTAT2,LCBMSGNN        MSGEN
         BO    MSGGEN                   YES
         TM    LCBSTAT1,LCBSENDN        SEND STATE
         BO    WRITINIT                 YES
         TM    LCBSTAT2,LCBRESP         OWE A RESPONSE
         BZ    READ                     NO
         BAL   R0,WRRESP                BUILD RESPONSE
READ     EQU   *
         AIF   ('&GEN' EQ 'MINI').L4A3                          OY03846
         BAL   RWKB,GLCBXA              LOCATE LCB EXTENSION     S99228
         NI    LCBMSGFM,LCBACKI         CLEAR BSC CONTROL, LEAVE S99228
*                                       ACK COUNTER              S99228
         TM    LCBXFLAG,LCBGPCTV        GENERAL POLL IN PROGRESS?S99228
         BO    KEEPSET                  YES, NO RESET ACK-1      S99228
.L4A3    ANOP                                                    S99228
         MVI   LCBERCCW+12,FLAG         SET ONLY SILI FLAG IN CCWS99228
         MVI   LCBMSGFM,AVTEZERO        RESET FORMAT BITS AND AC S99228