         MACRO
&NAME    IOSGEN &FUNC,&PARM,&REG,&VAR,&AUTH=CSECTNME,&LINKR=14
         GBLB  &EXECN,&EXECF            MULTIPLE EXPANSION SWITCHES
         GBLB  &EXECS                   MULTI SWITCH FOR SKUPDT   20001
         LCLC  &HEX,&SUFFIX             CHARACTER VARIABLES
         LCLC  &LBL                                               20001
.* 367090,368730                                                 M5464
.* 805200---CORRECT 'END OF LCH'  TEST,REL21                     A43241
.*                                                                M0100
&SUFFIX  SETC  '&SYSNDX'(2,4)           SET 3 CHARACTER SYSNDX VALUE
         AIF   ('&FUNC' EQ 'PTHAVL').PTH010
         AIF   ('&FUNC' EQ 'DOM').DOM010
         AIF   ('&FUNC' EQ 'SELSSM').SSM000
         AIF   ('&FUNC' EQ 'UCBCHM').NIP010
         AIF   ('&FUNC' EQ 'MAP').MAP040
         AIF   ('&FUNC' EQ 'VARY').VAR010
         AIF   ('&FUNC' EQ 'UCBFL1').FLGS010
         AIF   ('&FUNC' EQ 'DETECTOR').DTCT001
         AIF   ('&FUNC' EQ 'ENQUE').FIFONQ
         AIF   ('&FUNC' EQ 'TP').TPGEN  TEST FOR TP               20002
         AIF   ('&FUNC' EQ 'RESTORE').IECRES                      20001
         AIF   ('&FUNC' EQ 'SIMINT').SIMINT
         AIF   ('&FUNC' EQ 'SKUPDT').SKUPDT                       20001
         AIF   ('&FUNC' EQ 'GETQRQE').RQE00
         AGO   .IOSNG3                  SKIP TO MNOTE/INVALID FUNC.
.MAP040  AIF   ('&AUTH' EQ 'IEAMP650').MAP040A                    19026
         AIF   ('&AUTH' EQ 'IEEMPVCH').MAP040A                    19026
         AIF   ('&AUTH' EQ 'IEEMPVCP').MAP040A                    19026
         AIF   ('&AUTH' EQ 'IEE3603D').MAP040A                    M0404
         AIF   ('&AUTH' EQ 'IGC6203D').MAP040A                    19026
         AIF   ('&AUTH' EQ 'IGC0405I').MAP040A                    19026
         AIF   ('&AUTH' EQ 'ICFBDE00').MAP040A                   S21167
         AIF   ('&AUTH' EQ 'ICFBIE00').MAP040A                   S21167
         AGO   .IOSNG1                  UNAUTHORIZED USE MNOTE.   19026
.MAP040A SPACE 1                                                  19026
***********************************************************************
         AIF   (&VAR(1) EQ 1).MAP041
         AIF   (N'&REG LT 7).IOSNG2  IF CALLER SKIMPS ON WKREGS, MNOTE.
*        MACRO DEFINITION - PATH MAPPING FOR UNIPROCESSING
*                                                                     *
*        THIS MACRO, OWNED AND MAINTAINED BY IOS PERSONNEL, CREATES   *
*             A 1 - 4 ENTRY MAP WITH EACH 2 - BYTE ENTRY HAVING THE   *
*             FOLLOWING FORM:                                         *
*             *****************************************************   *
*             * 4 BIT      * 4 BIT      * 4 BIT      * 4 BIT      *   *
*             * ONLINE /   * CHANNEL    * CONTROL    * DEVICE     *   *
*             * OFFLINE    * ADDRESS    * UNIT       * ADDRESS    *   *
*             * INDICATOR  *            * ADDRESS    *            *   *
*             *****************************************************   *
*              WHERE 0000 = ONLINE (PATH AVAILABLE)                   *
*                    0001 = LAST ENTRY IN MAP                         *
*                    0010 = OFFLINE (PATH NOT AVAILABLE)              *
*                                                                     *
         AGO   .MAP042
.MAP041  AIF   (N'&REG LT 4).IOSNG2  IF CALLER SKIMPS ON WKREGS, MNOTE.
*        MACRO DEFINITION-PATH MAPPING FOR MULTIPROCESSING            *
*              THIS MACRO,OWNED AND MAINTAINED BY IOS PERSONNEL,      *
*                  CREATES A 2 ENTRY MAP OF THE FOLLOWING FORM;       *
*                                     (CPUA)   (CPUB)                 *
*                  ************************************               *
*                  *       *        *        *        *               *
*   PRIMARY PATHS  *  DEVICE NAME   *   00   *   01   *               *
*                  ************************************               *
*                  *       *        *        *        *               *
* SECONDARY PATHS  *  DEVICE NAME   *   01   *   00   *               *
*                  ************************************               *
*                  WHERE:  00 MEANS PATH NOT AVAILABLE                *
*                          01 MEANS PATH AVAILABLE
*              WHEN THERE ARE ONLY TWO PATHS (ONE FROM EACH CPU),     *
*              DEVICE NAME IN THE FIRST AND SECOND ENTRIES ARE        *
*              THE SAME AND PATHS FROM EACH CPU FOR THE SECOND ENTRY  *
*              ARE MARKED NOT AVAILABLE.                              *
.MAP042  ANOP
*              FOLLOWING ARE THE PARAMETERS WHICH MUST BE             *
*              SPECIFIED IN THE 'IOSGEN' CALL --                      *
*        IOSGEN  &FUNC,&PARM,(&REG(1),&REG(2),&REG(3),&REG(4)),&VAR   *
*              OR THE SAME WITH THE EXCEPTION '...,(&VAR(1),&VAR(2))' *
*              WHERE --                                               *
*                  1.&FUNC-MAP                                        *
*                  2.&PARM-NUMBER OF A REG WHICH POINTS TO 2 WORD     *
*                      AREA IN WHICH MAP IS TO BE CREATED,FOLLOWED    *
*                      BY A SIXTEEN WORD AREA IN WHICH THE REGS       *
*                      ARE TO BE SAVED.                               *
*                  3. &REG-OPERAND SUBLIST WHICH DEFINES FOUR TO SEVEN*
*                      REGISTERS WHICH MAY BE USED BY THE ROUTINE --  *
*                      UNIPROCESSING REQUIRES 7 REGISTERS, MULTI-     *
*                      PROCESSING REQUIRES FOUR REGISTERS.            *
*                      THE FIRST (&REG(1)) MUST CONTAIN THE ADDRESS   *
*                      OF THE UCB FOR WHICH PATHS ARE TO BE DETERMINED*
*                      THE LAST OF THE REQ'D REGS MUST SPECIFY THE REG*
*                      TO BE USED AS THE BASE FOR THIS ROUTINE.       *
*                      *** CAUTION -- IT IS ADVISED THAT THE CALLER   *
*                      NOT SPECIFY HIS OWN BASE REGISTER, AS A 'DROP' *
*                      IS ISSUED AT THE END OF THIS EXPANSION.        *
*                                                                     *
*                      THE OTHER REGISTERS SPECIFIED ARE ONLY NEEDED  *
*                      TO PREVENT CONFLICTS WITHIN THIS CODE.         *
*                      THEIR USE WILL BE TRANSPARENT TO THE INVOKING  *
*                      CSECT.                                         *
*                  4.&VAR - A SINGLE OPERAND, '0', FOR UNIPROCESSING, *
*                           OR AN OPERAND SUBLIST OF TWO PARAMETERS - *
*                      &VAR(1), '1', FOR MULTIPROCESSING AND ...      *
*                      &VAR(2),IF ZERO OR OMITTED, RESULTS IN NORMAL  *
*                              CODE GENERATION.                       *
*                              IF ONE = SPECIFIC REQUEST FOR EXTRA    *
*                                       CODE TO ENSURE THAT CHANNEL   *
*                                       IS STARTED FROM THE 'LCH'     *
*                                       RATHER THAN FROM 'EXCP'.      *
*                  THE RETURN REGISTER FOR THIS SUBROUTINE MAY BE     *
*                  SPECIFIED BY ADDING THE KEYWORD PARM 'LINKR=XX',   *
*                  WHERE 'XX' DENOTES THE REGISTER TO BE USED.        *
*                  DEFAULT IS 'LINKR=14'.                             *
*                                                                     *
***            THE KEYWORD PARAMETER 'AUTH=CSECTNME' MUST ALSO BE   ***
***            SPECIFIED, NOTING THE CSECT NAME INVOKING THE MACRO. ***
***********************************************************************
         SPACE 1
         AIF   (&VAR(1) EQ 0).MAP030        ('UNI-PROC')
         SPACE 1
***********************************************************************
*        REGISTER DEFINITION                                          *
***********************************************************************
         SPACE 1
IECIMPAR EQU   &PARM                    PARAMETER REGISTER
IECIMUCB EQU   &REG(1)                  UCB REGISTER
IECIMWK1 EQU   &REG(2)                  WORK REGISTER
IECIMWK2 EQU   &REG(3)                  WORK REGISTER
IECIMBAS EQU   &REG(4)                  BASE REGISTER
         SPACE 1
***********************************************************************
*        UCB DEFINITION AND FLAGS                                     *
***********************************************************************
         SPACE 1
IECIMALC EQU   1                        UCB ALLOCATION CHAN MASK
IECIMCHN EQU   4                        CHAN ADDR FIELD IN UCB
IECIMUNT EQU   5                        UNIT ADDR FIELD IN UCB
IECIMLCI EQU   10                       LOGICAL CHAN INDEX IN UCB
IECIMCHM EQU   12                       UCB CHAN MASK FIELD
IECIMMLT EQU   X'01'                    MULTIPLE PATH INDICATOR
         SPACE 1
***********************************************************************
*        PATH MAP LAYOUT AND FLAGS                                    *
***********************************************************************
         SPACE 1
IECIMNT1 EQU   0                        MAP-ENTRY1
IECIMNT2 EQU   4                        MAP ENTRY2
IECIMAVL EQU   X'01'                    PATH AVAILABLE FLAG
IECIMPRM EQU   2                        PRIMARY PATH - EITHER ENTRY
IECIMSEC EQU   3                        SECONDARY PATH - EITHER ENTRY
         SPACE 1
***********************************************************************
*        MISCELLANEOUS FLAGS AND PTRS                                 *
***********************************************************************
         SPACE 1
IECIMCVT EQU   16                       CVT PTR
IECIMLCH EQU   140                      PTR TO LOG CHAN TBL IN CVT
IECIMTCH EQU   6                        OFFSET IN TCH TAB TO TCH CODE
IECIMIND EQU   1                        PATH IND FLD IN TCH PREFX TBL
IECIMPRA EQU   X'08'                    PRIMARY PATH IND-CPUA
IECIMPRB EQU   X'02'                    PRIMARY PATH IND-CPUB
IECIMSCA EQU   X'04'                    SECONDARY PATH IND/CPUA
IECIMSCB EQU   X'01'                    SECONDARY PATH IND/CPUB
IECIMCUI EQU   X'F0'                    CONT UNIT MASK FOR TCH CU FIELD
IECIMCAA EQU   X'02'                    CPUA ACCESSABILITY BIT
IECIMCBB EQU   X'01'                    CPUB ACCESSABILITY BIT
IECIMNAV EQU   X'00'                    PATH NOT AVAIL
IECIMCHA EQU   20                       CHANMSK FIELD IN IOS
IECIMNXT EQU   124                      NEXT AVAILABLE
         EJECT
         STM   0,15,8(IECIMPAR)         SAVE REGS
         BALR  IECIMBAS,0               ESTABLISH
         USING *,IECIMBAS                        ADDRESSABILITY
         XC    IECIMNT1(8,IECIMPAR),IECIMNT1(IECIMPAR) ZERO MAP
         SPACE 1
         AIF   (T'&VAR(2) EQ 'O').MAP010 IF PARM MISSING OR IF CHANL
         AIF   (&VAR(2) EQ 0).MAP010 START CODE EXPLICTLY REFUSED, SKIP
         LTR   IECIMUCB,IECIMUCB        CHK FOR NEGATIVE CONTENTS
         BC    2,IECIM005               BR IF CONTENTS ARE POSITIVE
*
         LCR   IECIMUCB,IECIMUCB        TEST COMPLETE, RESTR CNTNTS
         IC    IECIMWK1,IECIMCHN(IECIMUCB) GET CHANNL ADDR FROM UCB
         N     IECIMWK1,IECIMZFM        ZERO FLAG BITS
         L     IECIMWK2,IECIMZCH        SET UP TO CALC CHANMSK
         SRL   IECIMWK2,0(IECIMWK1)     CALCULATE CHANMSK
         L     IECIMWK1,IECIMCVT        GET PTR TO CVT
         L     IECIMWK1,IECIMNXT(IECIMWK1) GET PTR TO NXT AVAILABLE
         LA    IECIMWK1,IECIMCHA(IECIMWK1) LOAD CHNMSK POINTER
         O     IECIMWK2,0(IECIMWK1)     SET NEW CHMSK IN REG
         ST    IECIMWK2,0(IECIMWK1)     SET NEW CHANMSK
.MAP010  ANOP
IECIM005 TM    IECIMCHM(IECIMUCB),IECIMPRA PRIM PATH FR CPUA AVAIL
         BC    1,IECIM010               NO-BYPASS SET OF AVAIL BIT
*
         OI    IECIMNT1+IECIMPRM(IECIMPAR),IECIMAVL MARK PATH AVAIL
IECIM010 TM    IECIMCHM(IECIMUCB),IECIMPRB PRIM PATH FR CPUB AVAIL
         BC    1,IECIM020               NO-TEST FOR ASYMMETRIC DEVICE
*
         OI    IECIMNT1+IECIMSEC(IECIMPAR),IECIMAVL MARK PATH AVAIL
IECIM020 TM    IECIMALC(IECIMUCB),IECIMMLT FOUR PATHS TO DEV
         BC    1,IECIM030               YES-ACCESS TCH TABL
*
         MVN   IECIMNT1(1,IECIMPAR),IECIMCHN(IECIMUCB) NO-SET CHAN ADD
         MVC   IECIMNT1+1(1,IECIMPAR),IECIMUNT(IECIMUCB) SET UNIT ADDR
         MVC   IECIMNT2(2,IECIMPAR),IECIMNT1(IECIMPAR) SET SECON ADDR
         BC    15,IECIMRST              RESTORE REGS
************************
         SPACE 1
IECIM030 L     IECIMWK1,IECIMCVT        GET CVT ADDRESS
         SR    IECIMWK2,IECIMWK2        PREPARE WORK REG
         IC    IECIMWK2,IECIMLCI(IECIMUCB) GET LCH INDEX FROM UCB
         SLL   IECIMWK2,3              MULTIPLY BY 8
         L     IECIMWK1,IECIMLCH(IECIMWK1) GET ADDR LCHTAB IN IOS
         LH    IECIMWK1,IECIMTCH(IECIMWK1,IECIMWK2) TEST CHAN ADDR
         N     IECIMWK1,IECIMMSK       MASK UNNEEDED BITS
         SH    IECIMWK1,IECIMSIX        BEGIN TCH TABLE
         TM    IECIMIND(IECIMWK1),IECIMPRA IS THIS PRIM PATH IND
         BC    8,IECIM040               NO-SET ADDRS IN REVERSE
*
         MVC   IECIMNT1(2,IECIMPAR),0(IECIMWK1) MOVE PRIM DEV ADDR
         MVC   IECIMNT2(2,IECIMPAR),2(IECIMWK1) MOVE SECN DEV ADDR
         BC    15,IECIM050              TEST CU FIELD
************************
         SPACE 1
IECIM040 MVC   IECIMNT2(2,IECIMPAR),0(IECIMWK1) MOVE SECN DEV ADDR
         MVC   IECIMNT1(2,IECIMPAR),2(IECIMWK1) MOVE PRIM DEV ADDR
IECIM050 TM    IECIMNT1+1(IECIMPAR),IECIMCUI ALT CONTROL UNITS
         BC    8,IECIM060               NO-SET CU/DEV NAME
*
         MVN   IECIMNT1+1(1,IECIMPAR),IECIMUNT(IECIMUCB) MOVE DEV NAM
         MVN   IECIMNT2+1(1,IECIMPAR),IECIMUNT(IECIMUCB) MOVE DEV NAM
         BC    15,IECIM070              TEST SECNDRY PATH CPUA
************************
         SPACE 1
IECIM060 MVC   IECIMNT1+1(1,IECIMPAR),IECIMUNT(IECIMUCB) MOV CU/DEV NA
         MVC   IECIMNT2+1(1,IECIMPAR),IECIMUNT(IECIMUCB) MV CU/DV NAM
IECIM070 TM    IECIMCHM(IECIMUCB),IECIMSCA SECN PATH CPUA AVAIL
         BC    1,IECIM080               NO-CK CPUB PATH
*
         OI    IECIMNT2+IECIMPRM(IECIMPAR),IECIMAVL MARK PATH AVAIL
IECIM080 TM    IECIMCHM(IECIMUCB),IECIMSCB SECN PATH CPUB AVAIL
         BC    1,IECIMRST               NO-RESTORE REGS
*
         OI    IECIMNT2+IECIMSEC(IECIMPAR),IECIMAVL MARK PATH AVAIL
IECIMRST LM    0,15,8(IECIMPAR)         RESTORE REGS
         BCR   15,&LINKR                RETURN
************************
         SPACE 1
         DS    0F
IECIMMSK DC    X'0000FFFF'              HALFWORD MASK
         AIF   (T'&VAR(2) EQ 'O').MAP020 IF TYPE OF PRCSSING NOT SPECFD
         AIF   (&VAR(2) EQ 0).MAP020    OR IF UNI-PRC SPECFD,SKIP CODE
IECIMZCH DC    X'80000000'              ZERO CHANNEL MASK
IECIMZFM DC    X'0000000F'              CHANNEL ADDR FIELD MASK
.MAP020  ANOP
IECIMSIX DC    H'0006'
         DROP  IECIMBAS
         SPACE 5
         AGO   .IOSGEND
.MAP030  ANOP
         SPACE 1
***********************************************************************
*        THIS IS PATH MAPPING ROUTINE FOR UNIPROCESSING               *
***********************************************************************
         SPACE 1
***********************************************************************
*        REGISTER DEFINITION                                          *
***********************************************************************
         SPACE 1
IECIMPAR EQU   &PARM                    PARAMETER REGISTER
IECIMUCB EQU   &REG(1)                  UCB REGISTER
IECIMWK1 EQU   &REG(2)                  WORK REGISTER
IECIMWK2 EQU   &REG(3)                  WORK REGISTER
IECIMWK3 EQU   &REG(4)                  WORK REGISTER
IECIMWK4 EQU   &REG(5)                  WORK REGISTER
IECIMWK5 EQU   &REG(6)                  WORK REGISTER
IECIMBAS EQU   &REG(7)                  BASE REGISTER
         SPACE 1
***********************************************************************
*        UCB DEFINITION AND FLAGS                                     *
***********************************************************************
         SPACE 1
IECIMALC EQU   1                        UCB ALLOCATION CHAN MSK
IECIMCHN EQU   4                        CHAN ADDR FIELD IN UCB
IECIMUNT EQU   5                        UNIT ADDR FIELD IN UCB
IECIMLCI EQU   10                       LOGICAL CHAN INDEX IN UCB
IECIMCHM EQU   12                       UCB CHANNEL MASK
IECIMMLT EQU   X'01'                    MULTIPLE PATH INDICATOR
         SPACE 1
***********************************************************************
*        PATH MAP LAYOUT AND FLAGS                                    *
***********************************************************************
         SPACE 1
IECIMNT1 EQU   0                        OFFSET TO BEGIN MAP ENTRY
IECIMUP  EQU   0                        UCB PTR IN PARALIST
IECIMNXT EQU   2                        INCR TO NEXT MAP ENTRY
IECIMNTY EQU   X'10'                    LAST ENTRY INDICATOR
IECIMNAV EQU   X'20'                    PATH NOT AVAIL BIT IN MAP
         SPACE 1
***********************************************************************
*        MISCELLANEOUS FLAGS AND PTRS                                 *
***********************************************************************
         SPACE 1
IECIMCVT EQU   16                       CVT PTR
IECIMLCH EQU   140                      PTR TO LOG CHAN TBL IN CVT
IECIMTCH EQU   6                        OFFSET IN TCH TAB TO TCH CODE
IECIMTWO EQU   2
IECIMCTR EQU   0                        PATH CTR IN PATH COMPOSITE
IECIMPIN EQU   X'08'                    PRIM PATH IND FOR TM INSTR
IECIMCHA EQU   0                        CHAN ADDR FROM TCH PREFIX
IECIMUCM EQU   X'F0'                    TCH TABLE CU MASK
IECIMIN8 EQU   1                        PATH INDICATOR FIELD
         EJECT
         STM   0,15,8(IECIMPAR)         SAVE REGISTERS            19026
         BALR  IECIMBAS,0
         USING *,IECIMBAS
         XC    IECIMNT1(8,IECIMPAR),IECIMNT1(IECIMPAR)  ZERO MAP
         TM    IECIMALC(IECIMUCB),IECIMMLT  MORE THAN 1 PATH TO DEV
         BC    1,IECIM01A               YES-ACCESS TCH TABLE
         SPACE 1
*        THIS CODING CREATES A ONE ENTRY MAP WHEN ONLY ONE PATH       *
*              IS AVAILABLE TO THE DEVICE. THERE IS NO WAY TO TEST    *
*              FOR PATH UNAVAILABILITY AT THIS POINT, SO THE          *
*              AVAILABILITY BIT IS NEVER SET (PATH ALWAYS CONSIDERED  *
*              AVAILABLE).                                            *
***********************************************************************
         SPACE 1
         MVN   IECIMNT1(1,IECIMPAR),IECIMCHN(IECIMUCB) NO-SET CHAN ADR
         MVC   IECIMNT1+1(1,IECIMPAR),IECIMUNT(IECIMUCB) SET UNIT ADDR
         OI    IECIMNT1(IECIMPAR),IECIMNTY  SET LAST ENTRY BIT
         BC    15,IECIMEND              RETURN
         SPACE 1
***********************************************************************
*        THIS CODING ACCESSES THE TEST CHANNEL PREFIX TABLE AND       *
*              SEARCHES FOR THE ENTRY WHICH CORRESPONDS TO THE        *
*              PRIMARY ADDRESS OF THE DEVICE. IT DECIDES,FROM THIS    *
*              TABLE,WHETHER ALTERNATE PATHS TO THIS DEVICE ARE       *
*              ALTERNATE CHANNEL PATHS OR PATHS THROUGH ALTERNATE     *
*              CONTROL UNITS.  IF ALTERNATE CHANNELS,THE CONTROL      *
*              UNIT AND DEVICE NAMES ARE MOVED FROM THE UCBUNIT       *
*              ADDRESS FIELD. IF ALTERNATE CONTROL UNITS,THE CONTROL  *
*              UNIT NAME IS TAKEN FROM THE TCH PREFIX TABLE AND       *
*              THE DEVICE NAME IS TAKEN FROM THE UCB. THEN THE        *
*              PATH INDICATOR IN THE TCH PREFIX TABLE IS COMPARED     *
*              AGAINST THE UCB CHANNEL MASK TO DETERMINE IF THE       *
*              PATH IS OFFLINE. IF SO,THE OFFLINE INDICATOR BIT       *
*              IS SET IN THE AVAILABILITY BYTE OF THE MAP. THIS       *
*              PROCESS IS REPEATED FOR ALL PATHS TO THE DEVICE.       *
*              WHEN THE LAST PATH IS PROCESSED, THE LAST ENTRY        *
*              BIT IS SET IN THE AVAILABILITY BYTE.                   *
***********************************************************************
         SPACE 1
IECIM01A L     IECIMWK1,IECIMCVT        GET CVT ADDRESS
         L     IECIMWK1,IECIMLCH(IECIMWK1)  LOAD ADDR LCH TAB IN IOS
         SR    IECIMWK2,IECIMWK2        PREPARE WORK REG
         IC    IECIMWK2,IECIMLCI(IECIMUCB)  GET LCH INDEX FROM UCB
         SLL   IECIMWK2,3               MULTIPLY BY 8
         LH    IECIMWK1,IECIMTCH(IECIMWK1,IECIMWK2)  TEST CHAN ADDR
         N     IECIMWK1,IECIMMSK        MASK OUT UNNEEDED BITS
         LA    IECIMWK2,IECIMTWO        SET UP FOR SUBTRACT
         SR    IECIMWK1,IECIMWK2        POINT TO PATH COMPOSITE
         SR    IECIMWK3,IECIMWK3        PREPARE INSERT CHAR REG
         IC    IECIMWK3,IECIMCTR(IECIMWK1)  SET PATH COUNTER
         SR    IECIMWK1,IECIMWK2        POINT TO TCHCODE TABLE ENTRY
         LR    IECIMWK5,IECIMWK3        SAVE PATH COUNTER
         AR    IECIMWK5,IECIMWK5        DOUBLE CTR FOR PARMREG CLAC
         SR    IECIMWK5,IECIMWK2        ADJUST REG DOWNWARD FOR SUBTR
         SR    IECIMWK4,IECIMWK4        PREPARE REG FOR INSERT CHAR
IECIM01B IC    IECIMWK4,IECIMIN8(IECIMWK1) SET PATH IND FOR EX INSTR
         MVN   IECIMNT1(1,IECIMPAR),IECIMCHA(IECIMWK1) MOVE CHAN ADDR
         TM    IECIMIN8(IECIMWK1),IECIMUCM VARIABLE CONTROL UNIT ADDRS
         BC    7,IECIM02B               YES-SET CU FIELD FROM TCH TAB
*
         MVC   IECIMNT1+1(1,IECIMPAR),IECIMUNT(IECIMUCB) SET UA FROM UC
         BC    15,IECIM02C              BR-TEST IF PATH OFFLINE
************************
         SPACE 1
IECIM02B N     IECIMWK4,IECIMBYT        AND CU ADDR FIELD OUT OF REG
         MVZ   IECIMNT1+1(1,IECIMPAR),IECIMIN8(IECIMWK1)  SET CU FIELD
         MVN   IECIMNT1+1(1,IECIMPAR),IECIMUNT(IECIMUCB) SET DEV NUMB
IECIM02C EX    IECIMWK4,IECIMOFT        TEST IF PATH OFFLINE
         BC    8,IECIM02D               PATH ONLINE-BRANCH
*
         OI    IECIMNT1(IECIMPAR),IECIMNAV  SET PATH NOT AVAIL BIT
IECIM02D LA    IECIMPAR,IECIMNXT(IECIMPAR)  LOOK AT NEXT ENTRY IN MAP
         SR    IECIMWK1,IECIMWK2        POINT TO NEXT TCH TAB ENTRY
         BCT   IECIMWK3,IECIM01B        FIND NEXT ADDR IF ANY
*
         SR    IECIMPAR,IECIMWK2        POINT TO LAST ENTRY IN MAP
         OI    IECIMNT1(IECIMPAR),IECIMNTY  SET LAST ENTRY BIT IN MAP
         SR    IECIMPAR,IECIMWK5        RESET MAP PTR FOR CALLER
         BC    15,IECIMEND              RETURN
************************
         SPACE 2
         DS    0F
IECIMBYT DC    X'0000000F'              HALF-BYTE MASK FOR AND INSTR
IECIMMSK DC    X'0000FFFF'              HALFWORD MASK
IECIMOFT TM    IECIMCHM(IECIMUCB),X'00' TEST IF PATH OFFLINE
IECIMEND LM    0,15,8(IECIMPAR)         RESTORE REGISTERS         19026
         BCR   15,&LINKR                RETURN TO CALLER          19026
         DROP  IECIMBAS
         SPACE 5
         AGO   .IOSGEND
.VAR010  ANOP
.*   IF M.P. USER SKIMPS ON WORKREGS, ABORT - -                       *
         AIF   (N'&REG LT 9 AND &VAR(1) EQ 1).IOSNG2
.*                                                                    *
.*  IF UNI-PROC USER SKIMPS, ALSO ABORT                               *
         AIF   (N'&REG LT 8 AND &VAR(1) EQ 0).IOSNG2
.*                                                                    *
         SPACE 1
***********************************************************************
         AIF   (&VAR(1) EQ 0).VAR011    'UNI-PROC'
         AIF   ('&AUTH' NE 'IGF24MPD').IOSNG1 UNAUTHORIZED USE MNOTE.
*        MACRO DEFINITION - VARY PATH FOR MULTIPROCESSING             *
         AGO   .VAR012
.VAR011  AIF   ('&AUTH' NE 'IGF2403D').IOSNG1 UNAUTHORIZED USE MNOTE.
*        MACRO DEFINITION - VARY PATH FOR UNIPROCESSING               *
.VAR012  ANOP
*              THIS MACRO, OWNED AND MAINTAINED BY IOS PERSONNEL,     *
*                  MAY BE USED TO VARY A PATH ONLINE OR OFFLINE       *
*                  (IF NOT THE LAST PATH TO THE DEVICE) FOR DEVICES
*                  WHICH MAY BE REACHED THROUGH MULTIPLE CHANNELS     *
*                  OR ALTERNATE SELECTOR SUBCHANNELS.                 *
*                                                                     *
         AIF   (&VAR EQ 0).VAR013A      IF ZERO, SKIP M.P. INFO
*              THE MODULE THAT CALLS THIS MACRO IS IGF24MPD           *
         AGO   .VAR013B
.VAR013A ANOP
*              THE MODULE THAT CALLS THIS MACRO IS IGF2403D           *
.VAR013B ANOP
*                                                                     *
*              THIS CODE IS GENERATED WHEN THE 'IOSGEN' CALL IS CODED *
*                  WITH THE VARIABLES SET ACCORDING TO THE FOLLOWING  *
*                  FORMAT --                                          *
*        IOSGEN &FUNC,(&PARM(1),&PARM(2),&PARM(3)),(&REG(1),&REG(2), +*
*              &REG(3), --- &REG(N)),&VAR,&AUTH=CSECTNME   WHERE --   *
*                                                                     *
*              FOLLOWING ARE THE PARAMETERS WHICH MUST BE SPECIFIED:
*                  1.&FUNC-VARY
*                  2.&PARM(1)- A REGISTER WHICH POINTS TO A 2 WORD    *
*                         PARAMETER LIST IN THE FOLLOWING FORM --     *
*                    ***********************************              *
         AIF   (&VAR(1) EQ 0).VAR015    'UNI-PROCESSING'
*                  +0*                * VARY   * MP -  *              *
*                    *  DEVICE  ADDR. * OFF/ON * CPU   *              *
*                    *                * REQ IND*  ID   *              *
         AGO   .VAR020
.VAR015  ANOP
*                  +0*                * VARY   *       *              *
*                    *  DEVICE  ADDR. * OFF/ON * NULL  *              *
*                    *                * REQ IND*       *              *
.VAR020  ANOP
*                    ***********************************              *
*                  +4* BASE ADDRESS OF DEVICE IN       *              *
*                    * EBCDIC, RIGHT ADJUSTED.         *              *
*                    *                                 *              *
*                    ***********************************              *
*                    .. 2 BYTES .......                               *
*                    ............... 4 BYTES ..........               *
*                    FOR EXAMPLE --                                   *
*                                       DEVICE ADDR. - X'0193'        *
*                                       VARY OFF/ON INDICATOR -       *
*                                         X'00' = OFFLINE             *
*                                         X'04' = ONLINE              *
         AIF   (&VAR(1) EQ 0).VAR025    'UNI-PROCESSING'
*                                       MP CPU ID = X'C1' FOR CPUA OR,*
*                                                   X'C2' FOR CPUB.   *
.VAR025  ANOP
*                                       EBCDIC DEVICE ADDRESS, FOR    *
*                                       EXAMPLE COULD BE --           *
*                                            X'F0F2F9F3'.             *
*                                    *** NOTE -- THIS FIELD IS CON-   *
*                                       SIDERED AS INPUT ONLY, AND    *
*                                       IS NOT PRESERVED ACROSS THE   *
*                                       INTERFACE.                    *
*                                                                     *
*                    &PARM(2)- A REG WHICH POINTS TO THE CVT          *
*                                                                     *
*                    &PARM(3)- A WORK REGISTER, REG 0 BEING VALID     *
*                                                                     *
         AIF   ('&FUNC' EQ 'VARY' AND &VAR(1) EQ 1).VAR030  'MULTI'
*                  3.&REG-OPERAND SUBLIST WHICH DEFINES EIGHT REGS    *
         AGO   .VAR035
.VAR030  ANOP
*                  3.&REG-OPERAND SUBLIST WHICH DEFINES NINE REGS     *
.VAR035  ANOP
*                        TO BE USED AS WORK REGISTERS
*                  4.&VAR--                                           *
*                     A.ZERO-UNIPROCESSING                            *
*                     B.ONE-MULTIPROCESSING                           *
*                                                                     *
*                  5.&AUTH=XXXXXXXX IS A KEYWORD PARAMETER SPECIFYING *
*                                   THE INVOKING CSECT NAME.          *
*                                                                     *
*              POSSIBLE CODES ( BASE 10 ) IN RETURN CODE REGISTER     *
*                   0 = SUCCESSFUL COMPLETION OF VARY REQUEST         *
         AIF   (&VAR(1) EQ 1).VAR036    'MULTI-PROCESSING'
*                   4 = T.P. DEVICE - CANNOT VARY                     *
         AGO   .VAR037
.VAR036  ANOP
*                   4 = RESERVED FOR FUTURE USE                  A46458
.VAR037  ANOP
*                   8 = THIS IS LAST PATH - CANNOT VARY               *
*                  12 = PATH DOES NOT EXIST - CANNOT VARY             *
*                  16 = INVALID BASE ADDRESS - CANNOT VARY            *
*                  20 = RESERVED DEVICE - CANNOT VARY                 *
*                  24 = ONLY ONE PATH - CANNOT VARY                   *
*                                                                     *
**********************************************************************
         SPACE 1
         SPACE 1
***********************************************************************