         MACRO
&NAME    LINEEND  &GEN=
         TITLE '&NAME     LINE END APPENDAGE'
&NAME    CSECT
.*CHANGE ACTIVITY= AS FOLLOWS:                                   S21903
.*A104830-104950,107200-107330,312650                            S22027
.*A027410-027500,117820-118160,155420-155520,189010-189160       S99228
.*A199020-199140,297410-297580,298400-299400,334840-334960       S99228
.*A411810,411900                                                 S99228
.*C127600-128000                                                 S99228
.*C330000-330400,429800-429980,700000-702160,719400-719580       S99228
.*A302610-302700,351620-351740,489610-489700,291210-591320       S22029
.*C411300,657400,683800-684600                                   S22029
.*A052650-052750,058610-058720,073230-073350                     S22028
.*A481000                                                        A42376
.*C030400,461600,481600-482600,484600                            A42376
.*A589000                                                         M6293
.*C030400                                                         M6293
.*A057800,164600,167800,250600,260800,275400,280000,280900       S21101
.*A350600,393800,505600,549200,653000,657400                     S21101
.*C030400,106800,129600-134400,141400-141600,151400              S21101
.*C162600-162800,166200-166400,184600-184800,204200,204800       S21101
.*C205200-205600,218800,238200-238800,288000,341600,355400       S21101
.*C368200-368600,398400-398800,399600,400400,432600              S21101
.*C489800-490200,490400-491400,492000,505400,508800              S21101
.*C524000-525000,529000-530200,603600,651200,653800-654600       S21101
.*C716600                                                        S21101
.*A040000,420600                                                  M5953
.*C030400,040000                                                  M5953
.*C030400,216400                                                SA51068
.*A310000,430000                                                SA44892
.*C030400,489800-501200,512600-517400                           SA44892
.*A283000,598400                                                SA44983
.*C599000-601600                                                SA44983
.*C030400,645200                                                SA44894
.*A238200,454200,581800,669200,671000,671400,671800,674400       S22025
.*A676200,685000,686000,689800,690600,691200                     S22025
.*C029200,055000-055200,129200-134800,242800-246000              S22025
.*C300800-301000,335000,412000,489600,490600-490620,490740       S22025
.*C492800,504800,580600-581000,584000,587200-587600              S22025
.*C589198-589266,594200,671800,672000,674200,685200              S22025
.*C719700-719750                                                 S22025
.*D037600,111400,118000,145200-147200,298400-298800              S22025
.*D357000-357200,411400,490810-490870,585800-586400              S22025
.*D598400-598800,670200-670400,674200                            S22025
.*A034800,207800,275200,297800,312600,315800,327600,330400       S22026
.*A336600,346000,347000,351400,352600,356800,452600,522400       S22026
.*A654800,692200,692400,700200                                   S22026
.*C357000-357200,522600-522800                                   S22026
.*D145200-147200,291000,656600                                   S22026
.*A446800                               MODIFIED 11/15/71        A42413
.*A022000,368200,369400,380400,719600                           SA48278
.*A593000                                                       SA49233
.*A369500,719630                                                SA51061
.*C368650                                                       SA51061
.*A448000                               MODIFIED 12/02/71        A42413
.*A448180                                                         M2561
.*C030400                                                         M2561
.*D447600,447800                                                  M2561
.*C663200,664000                                                SA51097
.*C104600                                                       SA51791
.*A366800                                                       SA52517
.*C466800,467800,468200,468600                                  SA54276
.*A469800                                                       SA55941
.*A086220,097620,168010,176007                                  SA48276
.*D168610-168710                                                SA48276
.*A228040                                                       SA50194
.*A022000,064000,119600                                         SA51090
.*C118200-118400,120400,702010                                  SA51090
.*D119000                                                       SA51090
.*A689040                                                       SA52946
.*C172600,173400,413400,414400,A414500                          SA54923
.*A000200,002000,616800,618400                                  SA56617
.*C000400,000410-000426,000600-000800,001000,615200-615400      SA56617
.*D002200-019600                                                SA56617
.*A038410                                                       SA56915
.*C384200                                                       SA57329
.*A049060-049120                                                 A56906
.*C049000                                                        A56906
.*A162000,692200,692400                                          S99244
.*C149400,22220                                                  S99244
.*C466800,467800,468200,468600                                  SA54276
.*A469950,477000,477600                                         SA57685
.*C477000                                                       SA57685
.*C228040                                                       SA58997
.*D591203-591206,591230                                         SA59020
.*D521800-522400,523000,705400                                   S21903
.*A547600                                                       SA57695
.*C470000,547800,552200                                         SA57695
.*D552600-555000                                                SA57695
.*A469950                                                       SA59538
.*C466000                                                       SA59538
.*C062600                                                       SA59027
.*C061000,086300-086301,097680,301800,335200,411775-411795      SA59028
.*C411806-411810,451400,719560                                  SA59028
.*A125400                                                       SA59992
.*A117800                                                       SA61780
.*D121400                                                       SA61780
.*A199080                                                       SA62341
.*A311800                                                       SA61094
.*C046000                                                       SA62408
.*D432926                                                       SA62383
.*A608400                                                       SA62329
.*C609200,609800-610000                                         SA62329
.*451480                                                        SA62984
.*A172400                                                       SA61779
.*C058710                                                       SA61779
.*A411830                                                       SA63959
.*D411809-411812                                                SA63959
.*A036200                                                       SA65392
.*A398610,720091                                                SA62991
.*D 300600                                                      SA61794
.*C 301200-301900                                               SA61794
.*A049000                                                       SA64676
.*A634800,643000                                                SA65359
.*C618470-618480                                                SA65359
.*A701740,701800                                                SA65374
.*A471600,472000                                                SA65357
.*A700010,700900                                                SA65397
.*A613000                                                       OX02181
.*D613800                                                       OX02181
* A580200                                                       SA66604
* C301350-301920                                                SA66604
* C329780                                                       SA66598
* A700340                                                       SA65428
* D700370                                                       SA65428
* A432799                                                       SA65874
* A700880                                                       SA66946
* A330020,330146,348000                                         SA66632
* A577800                                                       SA65865
* D577000-577200                                                SA65865
* A376000                                                       SA65387
* D376800                                                       SA65387
* A115200                                                       SA66616
* A035200                                                       SA65906
* D689001-689002                                                SA66937
*D686100,686150                                                 SA62379
*C057800,111200-112400                                          SA67139
*A110600                                                        SA67139
.*C569600-569800                                                SA65389
.*C398510                                                       SA66594
.*A411720                                                       SA63595
.*D411760-411765                                                SA63595
* A70157                                                        OX03941
* A701057                                                       OX03941
* A056200                                                       OX03963
* A101600                                                       OY00507
* A054021,054189                                                OY03460
* D053800-054000                                                OY03460
* C330480-330500                                                SA68026
* A236600,297000,428600                                         SA68035
* A168600                                                       SA69087
* D172500                                                       SA69087
* A301290                                                       SA64386
.*
.*
.*
.*
.*
.*
         SPACE 3
* A552300                                                       SA69964
* A204000                                                       SA69968
*C113400                                                        SA70316
*C484720                                                        SA70874
***********************************************************************
*TITLE -- LINE END APPENDAGE                                          *
*                                                                     *
         AIF   ('&GEN' NE 'MINI').TAG1
*       MODULE NAME = IGG019Q4 (MINI)                                 *
         AGO   .TAG5
.TAG1    AIF   ('&GEN' NE 'STSP').TAG2
*       MODULE NAME = IGG019Q3 (START/STOP)                           *
         AGO   .TAG5
.TAG2    AIF   ('&GEN' NE 'BISC').TAG3
*       MODULE NAME = IGG019Q2 (BI-SYNC)                              *
         AGO   .TAG5
.TAG3    AIF   ('&GEN' NE 'QTAM').TAG4
*       MODULE NAME = IGG019Q5 (QTAM)                                 *
         AGO   .TAG5
.TAG4    AIF   ('&GEN' NE '').TAG5
*       MODULE NAME = IGG019R0 (BOTH)(BLANK)                          *
.TAG5    ANOP
*                                                                     *
*       DESCRIPTIVE NAME = LINE END APPENDAGE                         *
*                                                                     *
*       COPYRIGHT = 'NONE'                                            *
*                                                                     *
*       STATUS: CHANGE LEVEL 5                                        *
*                                                                     *
*FUNCTION -- AS A LOGICAL EXTENSION OF IOS LINE END APPENDAGE OBTAINS *
*   CONTROL WHEN AN I/O INTERRUPT OCCURS WITH ENDING STATUS, WHEN AN  *
*   ERROR IS DETERMINED TO BE PERMANENT BY ERP, OR WHEN AN ERROR IS   *
*   CLEARED BY ERP.                                                   *
*                                                                     *
*ENTRY POINTS -- FIRST EXECUTABLE INSTRUCTION                         *
*                                                                     *
*INPUT -- R2  IOB ADDRESS                                             *
*   R14 RETURN ADDRESS                                                *
*   R15 ENTRY POINT ADDRESS                                           *
*                                                                     *
*OUTPUT -- REGISTERS 0-9,14,15 REMAIN TRANSPARENT TO IOS UPON EXIT    *
*   FROM THIS MODULE                                                  *
*                                                                     *
*EXTERNAL ROUTINES --                                                 *
*   OS POST - TO POST MCP WAIT COMPLETE                               *
*                                                                     *
*   STAGE TWO OF EXIT EFFECTOR - TO SCHEDULE IQE                      *
*                                                                     *
*                                                                     *
*   'TCB REMOVAL ROUTINE' - TO MAKE MCP TCB NON-DISPATCHABLE FOR MP   *
*   65 ONLY.                                                          *
*                                                                     *
*   'IEDQKA02' - I/O GENERATOR SUBROUTINE TO BUILD CONTINUE CHANNEL   *
*   PROGRAMS.                                                         *
*                                                                     *
*   'IEDQTNT' - TO OBTAIN TERMINAL TABLE ENTRY ADDRESS FROM TNT OFFSET*
*                                                                     *
*EXITS-NORMAL --                                                      *
*   B  4(14) - TO SKIP POST AND FREE REQUEST ELEMENT                  *
*   B  8(14) - TO RESTART A CHANNEL PROGRAM                           *
*                                                                     *
*EXITS-ERROR --                                                       *
*   BR  14 TO SCHEDULE ERP UPON 1ST DETECTION OF ERROR                *
*                                                                     *
*TABLES/WORK AREAS -- DSECTS OF CONTROL BLOCKS GENERATED BY MACROS:   *
*   TAVTD                                                             *
*   TLCBD                                                             *
*   TQCBD                                                             *
*   TTRMD                                                             *
*   TTSID                                                             *
*   TCCWD                                                             *
*   TSCBD                                                             *
*   TPRFD                                                             *
*   DCBD                                                              *
*   TRECBD                                                            *
*   TTNTD                                                             *
*   TDEBD                                                             *
*                                                                     *
*ATTRIBUTES -- REFRESHABLE, SUPERVISOR MODE, DISABLED                 *
*                                                                     *
*NOTES -- THE OPERATION OF THIS MODULE DOES NOT DEPEND UPON A         *
*   PARTICUALR INTERNAL REPRESENTATION OF THE EXTERNAL CHARACTER      *
*   SET.                                                              *
*                                                                     *
*   IF A PERMANENT ERROR HAS NOT OCCURRED, ENDING STATUS IS EXAMINED  *
*   TO DETERMINE IF ERP IS TO BE SCHEDULED.  UNUSUAL ENDING STATUS    *
*   RESULTS IN A RETURN TO IOS TO SCHEDULE THE FIRST LOA: OF ERP FOR  *
*   THIS DEVICE.                                                      *
*                                                                     *
*   WHEN ERP ACTION IS NOT REQUIRED, LINE END APPENDAGE OBTAINS THE   *
*   TP OP CODE FOR THE FAILING CCW BY USING THE ADDRESS IN THE CSW AS *
*   AN INDEX ARGUMENT INTO A LIST OF TP OP CODES (LCBTPCD).  THE TP   *
*   OP CODE IS USED AS AN INDEX INTO A BRANCH TABLE, TO TAKE          *
*   SPECIFIC ACTION FOR THIS INTERRUPT.  TWO TABLES ARE EMPLOYED.     *
*   ONE IS FOR NORMAL ENDING STATUS.  THE OTHER FOR ERROR CONDTIONS   *
*   DETTECTED BY ERP.                                                 *
*                                                                     *
*   FOR ERRORS THAT HAVE OCCURRED PRIOR TO TEXT TRANSFER, A ZERO      *
*   LENGTH BUFFER IS POSTED TO MH FOR INMSG/OUTMSG PROCESSING.        *
*                                                                     *
*   IF AN EOB INTERRUPT OCCURS WHILE RECEIVING A MESSAGE, A RESTART   *
*   IS MADE FROM THE APPENDAGE UNLESS MH PROCESSING IS REQUIRED.      *
*   WHEN EOT IS RECEIVED, THE FILLED BUFFER(S) ARE POSTED TO MH       *
*   INDICATING THAT THIS IS END OF MESSAGE.  FOR AN EOB INTERRUPT ON  *
*   OUTPUT, PREVIOUS BUFFERS ARE POSTED TO THE BUFFER RETURN QCB AND  *
*   A RESTART IS ACCOMPLISHED.  THE LAST BUFFER  OF A SUCCESSFULLY    *
*   SENT MESSAGE IS POSTED TO BUFFER DISPOSITION FOR OUTMSG EXITS.    *
*                                                                     *
*   IN THE EVENT OF A TEXT MODE ERROR, THE ABOVE ACTION IS TAKEN      *
*   EXCEPT THAT THE BUFFER REFLECTING THE INTERRUPT IS POSTED TO MH   *
*   TO OBSERVE USER SELECTED OPTIONS.                                 *
*                                                                     *
*   THE 'SCAN' ROUTINE IS ENTERED FROM PCI APPENDAGE AS WELL AS FROM  *
*   LINE END APPENDAGE.  ITS ADDRESS IS ALWAYS AT AN OFFSET OF 4 INTO *
*   THIS MODULE.  OPEN MOVES THIS ADDRESS INTO THE AVT FOR ACCESS BY  *
*   PCI APPENDAGE.                                                    *
***********************************************************************
         EJECT
         USING IEDQPRF,RPREFIX
         USING IEDQLCB,RLCB
         USING IEDQCCW,RCCW
         USING IEDQAVTD,RAVT
         USING IEDQSCB,RSCB
         USING IEDQLCBX,RE                                       S99228
         USING *,R15,RBASE
*
*        REGISTER EQUATES
*
R0       EQU   0
RTST     EQU   1                        TWELVE STAR REGISTER    SA51090
R1       EQU   1 .                     GENERAL REGISTER         SA48278
RLCB     EQU   2                        LCB BASE
RWKA     EQU   3
RBASE    EQU   4
RF       EQU   5                        WORK REGISGER
RPREFIX  EQU   6
RA       EQU   7                        WORK REGISTER
RB       EQU   8                        WORK REGISTER
RC       EQU   9                        WORK REGISTER
RD       EQU   10                       WORK REGISTER
RDCB     EQU   10
RE       EQU   11                       WORK REGISTER
R11      EQU   11
RCCW     EQU   12                       CCW BASE
RAVT     EQU   13                       AVT BASE
RSCB     EQU   14                       SCB BASE
R14      EQU   14
R15      EQU   15
         EJECT
         B     ID
         AIF   ('&GEN' EQ 'MINI').L6
         AIF   ('&GEN' EQ 'BISC' OR '&GEN' EQ '').LL41           S99228
SCANAD   DC    A(0)                     DUMMY SCAN ROUTINE ADCON S99228
*                                       TO PRESERVE DISPLACEMENTSS99228
*                                       OF LOOKAD AND SORCEAD FORS99228
*                                       START-STOP               S99228
         AGO   .LL42                                             S99228
.LL41    ANOP                                                    S99228
* * * * * * * * * * * * * * * * * * * * * *  * * *  * * * * * * * * * *
* * *    SCANAD MUST ALWAYS BE AT AN OFFSET OF FOUR IN TO THIS    * * *
* * *    APPENDAGE.                                               * * *
* * * * * * * * * * * * * * * * * * * * * *  * * *  * * * * * * * * * *
SCANAD   DC    A(SCAN)                  SCAN FOR BSC READ TEXT
* * * * * * * * * * * * * * * * * * * * * *  * * *  * * * * * * * * * *
*                                                                S99228
*                                                                S99228
* LOOKAD AND SORCEAD MUST BE AT OFFSET EIGHT AND TWELVE          S99228
* RESPECTIVELY                                                   S99228
*                                                                S99228
.LL42    ANOP                                                    S99228
LOOKAD   DC    A(LOOKER)                ADDR DVCCSTCS LOC RTN    S99228
SORCEAD  DC    A(SOURCER)               ADDR GENPOLL SRC DET RTN S99228
FNDQCBAD DC    A(FINDQCB) .             FIND DEST QCB ROUTINE    S22029
         AIF   ('&GEN' EQ 'STSP' OR '&GEN' EQ 'QTAM').L6         S99228
FINDAD   DC    A(FINDER)                ADDR INVLIST ENT LOC RTN S99228
*                                                                S99228
*                                                                S99228
BSCRSPAD DC    A(BSCRSP)                BSC READ RESPONSE TO TEXT
CHACKAD  DC    A(CHACK)                 CHECK RESPONSE -BSC
BSC27AD  DC    A(BSC270X)               CSW ADJUST BSC WRITES TEXT
.L6      AIF   ('&GEN' EQ 'MINI').L701
IDCHKAD  DC    A(IDCHK)                 ID CHECK ROUTINE
         AIF   ('&GEN' EQ 'BISC').L7
         AIF   ('&GEN' EQ 'QTAM').CA
DYNCAD   DC    A(DYNC) .                                         TSO
.CA      ANOP                                                    S22025
TSOCHKAD DC    A(TSOCHK)
OPCHKAD  DC    A(OPCHK1)
.L7      ANOP
POLLAD   DC    A(POLLRT)               AUTOPOLL ROUTINE
.L701    ANOP
&NAME    IEDHJN , .                     MODULE ID AND DATE       S22025
ID       DS    0H
         L     RCCW,CVTLOC              CVT POINTER
         L     RAVT,AVTCVTPT(,RCCW)     GET ADDRESS OF LOAD LIST
         L     RAVT,AVTEZERO(,RAVT)     AVT BASE
         STM   0,9,AVTSAVEX             SAVE REGISTERS
         ST    R14,AVTDPARM             SAVE RETURN REGISTER
         L     RCCW,AVTCVTMP(,RCCW)     GET MP 65 CVT ADDRESS
         LTR   RCCW,RCCW                IS THIS A 65
         BZ    NOTMP65                  BRANCH IF NO
         LR    R0,R15                   SAVE BASE RESIGER
         L     R15,AVTMPTRR(RCCW)       GET MP65 TCB REMOVAL MODULE
         L     RB,AVTTCB                GET TCB ADDRESS
         USING IEDQTCB,RB
         OI    TCBNDSP1,TCBTPSP         MAKE IT NON-DISPATCHABLE
         OI    TCBFLGS+4,TCBPNDSP
         DROP  RB
         BALR  R14,R15                  LINK TO REMOVAL ROUTINE
         LR    R15,R0                   RESTORE BASE
NOTMP65  EQU   *
         LA    RBASE,4095(R15)
         LA    RBASE,1(RBASE)
         SH    RLCB,LCBSIZE             BACK UPNTO START OF LCB
         L     RSCB,LCBSCBA-1           SCB BASE
         AIF   ('&GEN' EQ 'MINI').CONC1                          S22026
         TM    SCBQTYPE,SCBCONC .       CONC                     S22026
         BNO   NOTCONCA .               BRANCH IF NO             S22026
         L     RSCB,LCBSCBDA-1 .        GET FIRST SCB            S22026
         OI    SCBQTYPE,SCBCONC .       SET TEMP CONC FLAG       S22026
NOTCONCA EQU   * .                                               S22026
.CONC1   ANOP                                                    S22026
         MVI   LCBCSW+5,0               CLEAR FIRST BYTE OF CSW
*                                         INVALID ON PROG CHECK
         TM    LCBFLAG3,LCBSOHR         SOH % R MESSAGE         SA65906
         BO    NOTRACE                  BR YES, RETURN FROM ERP SA65906
*                                         INT ALREADY TRACED    SA65906
         L     12,AVTIOT               SET TRACE BASE
         LTR   12,12                    TRACE RTN (IGG019Q0) ACTIVE?
         BZ    NOTRACE                  NO. BYPASS TRACE.
         BALR  11,12                   LINK TO IT
NOTRACE  EQU   *
         CLI   LCBECBCC,PERMERR         PERMANENT ERROR         SA65392
         BE    NOTHRESH                 BR YES, DO NOT UPDATE   SA65392
*                                         THRESHHOLD COUNTERS   SA65392
         USING DEBTCBAD,RWKA            DEB ADDRESSIBILITY      SA65392
         SR    RCCW,RCCW                CLEAR WORK              SA65392
         LR    RF,RCCW                  REGISTERS               SA65392
         IC    RCCW,DEBNMEXT            GET NUMBER EXTENTS      SA65392
         SLL   RCCW,TWO                 SIZE OF UCB ADDRESSES   SA65392
         L     RCCW,DEBUCBAD(RCCW)      THRESHHOLD AREA         SA65392
         IC    RF,LCBUCBX               RLN MINUS ONE           SA65392
         SLL   RF,TWO                   THRESHHOLD INDEX        SA65392
         AR    RCCW,RF                  THRESHHOLD COUNTERS     SA65392
         CLC   ZERO(ONE,RCCW),AVTHRESH  TRANSMISSIONS REACHED   SA65392
         BNL   INIT                     BR YES, INITIALIZE      SA65392
         IC    RF,ZERO(RCCW)            INCREMENT               SA65392
         LA    RF,ONE(RF)               THRESHHOLD              SA65392
         STC   RF,ZERO(RCCW)            COUNTER                 SA65392
         B     NOTHRESH                 AND CONTINUE            SA65392
INIT     EQU   *                                                SA65392
         MVC   ZERO(FOUR,RCCW),AVTFZERO INITIALIZE COUNTERS     SA65392
         MVI   ZERO(RCCW),ONE           INITIALIZE TRANS CNT    SA65392
NOTHRESH EQU   *                                                SA65392
TSO2     EQU   *                                                    TSO
          L     RCCW,LCBCSW-1            FAILING CCW+8
         LA    RCCW,AVTEZERO(,RCCW)     CLEAR HI ORDER BYTE
         SH    RCCW,H8                  BACK UP TO INTRPT CCW
         AIF   ('&GEN' EQ 'MINI').L8A
         AIF   ('&GEN' EQ 'BISC').L8A
* PLEASE NOTE THAT THE FOLLOWING CODE TO SET AND RESET LCBCIRCD WILL
* WORK FOR A 1050 ONLY SO LONG AS THE RESPONSE TO POLL OR ADDRESSING
* GENERATES AN INTERRUPT. THE BIT IS USED TO DETERMINE WHETHER OR NOT
* A WRITE BREAK COMMAND WILL BE EXECUTED AFTER A HALT I/O.
         L     RWKA,LCBSTART-1          ADDRESS OF START CCW        TSO
         LA    RWKA,0(RWKA)             CLEAR HIGH ORDER BYTE       TSO
         LA    RF,LCBCPA-1              IS CCW IN CH PGM AREA   SA56915
         CR    RWKA,RF                  COMPARE ADDRESS         SA56915
         BNH   NOT2741                  BR IF RESTART OCCURED   SA56915
         SR    RF,RF                    CLEAR FOR INSERT CHAR   SA56915
         L     RA,LCBDCBPT              POINT TO DCB            SA56915
         USING IHADCB,RA                ADDRESSABILITY          SA56915
         IC    RF,DCBEIOBX              SIZE OF LCB             SA56915
         DROP  RA                       ELIMINATE DCB REG       SA56915
         LA    RF,0(RLCB,RF)            POINT TO END OF LCB     SA56915
         CR    RWKA,RF                  CCW IN LCB ?            SA56915
         BH    NOT2741                  BRANCH NO               SA56915
         CLI   0(RWKA),CCWWRITE         WAS START CCW A WRITE       TSO
         BNE   NOT2741                  BRANCH ON NO                TSO
         CR    RCCW,RWKA                IS FIRST CCW THE            TSO
*                                       INTERRUPT CCW               TSO
         BNE   NOTINT                   BRANCH ON NO                TSO
         SR    R0,R0                    CLEAR REGISTER              TSO
         CH    R0,LCBCSW+5              IS RESIDUAL COUNT ZERO      TSO
         BE    NOTINT                   BRANCH IF SO              M5953
         CLI   4(RWKA),X20              IS THIS RESPONSE OWED CCW M5953
         BNE   NOT2741                  IF NOT, CONTINUE          M5953
         OI    LCBTSOB,LCBCIRCD         INDICATE IN TEXT MODE     M5953
         OI    LCBSTAT2,LCBRESP         INDICATE RESPONSE OWED    M5953
         B     NOT2741                  BRANCH TO CONTINUE        M5953
NOTINT   EQU   *                                                    TSO
         L     RWKA,0(RWKA)             DATA ADDRESS FROM CCW       TSO
         CLI   0(RWKA),CIRCD            WAS FIRST CHAR A CIRCLE-D   TSO
         BNE   NOTCIRCD                 BRANCH ON NO                TSO
         OI    LCBTSOB,LCBCIRCD         INDICATE CIRCLE-D SENT      TSO
         B     NOT2741                                              TSO
NOTCIRCD EQU   *                                                    TSO
         CLI   0(RWKA),CIRCC            WAS FIRST CHAR CIRCLE-C     TSO
         BNE   NOT2741                  BRANCH ON NO                TSO
         NI    LCBTSOB,X'FF'-LCBCIRCD   INDICATE CIRCLE-C SENT      TSO
NOT2741  EQU   *                                                    TSO
         CLI   LCBTPCD+11,X'AC'         OPEN LINE CHECK?            TSO
         BE    OPCHK                    YES. GO PUT UP PREPARE      TOS
.L8A     ANOP
         CLI   LCBECBCC,X48 .           HIO INTERRUPT               TSO