         MACRO
&NAME    PWRT  &SIZE=
&NAME    WRTRP SIZE=&SIZE,DISP=12
         MEND
