         MACRO
&NAME    RCALL &PARM,&OFFSET
&NAME    RCLBR &PARM,&OFFSET           CREATE SET-UP OF EP
         BALR  14,15
         MEND
