         MACRO
&NAME    RCLBR &PARM,&OFFSET
.**********************************************************************
         AIF   ('&PARM' EQ 'BPAM').PAM
         AIF   ('&PARM' EQ 'AFIO').AF
         MNOTE 12,'ILLEGAL USE OF RCLBR'
         MEXIT
.PAM     ANOP
         STH   0,TUBFDAD               SAVE ARGUMENT FOR LIBIO
&NAME    L     15,IHKYYBPM .       ENTRY POINT OF BPAM
         MEXIT
.AF      ANOP
         STH   0,TUBAFPAR              SAVE ARGUMENT FOR AFIO
&NAME    L     15,IHKYYAFI .       ENTRY POINT OF AFIO
         MEND
