         MACRO
&NAME    RELEASE &A,&FTYPE=
         GBLA  &RAFIOPR,&RAFIORG
         VALARG (&A),(1,A),(&FTYPE),(3,,GBL,XGBL)
         RAFIOARG (&A.2,&FTYPE,RELEASE)
&NAME    LA    &RAFIORG,&RAFIOPR
         RCALL AFIO
         MEND
