         MACRO
&NAME    RESTORE &LIST
         AIF   ('&LIST' EQ '').E1
&NAME    IHBINNRA &LIST                     LOAD REG 1
         SVC   17                                ISSUE SVC FOR RESTORE
         MEXIT
.E1      IHBERMAC 01,150                    LIST ADDR MISSING
         MEND
