         MACRO
&NAME    RGET  &A,&B,&C,&REC=,&FTYPE=
         GBLA  &RAFIOPR,&RAFIORG
         VALARG (&A,&B,&C),(2,R,XK,2,S,M,3,,A,B),(&REC,&FTYPE),        X
               (2,,PREVIOUS,3,,GBL,XGBL)
         RAFIOARG (&A.2,&B,&C.1,&REC,&FTYPE,NEXT,RGET)
&NAME    LA    &RAFIORG,&RAFIOPR
         RCALL AFIO
         MEND
