         MACRO
&NAME    RPOINT &A,&B,&KEY=,&FTYPE=
         GBLA  &RAFIOPR,&RAFIORG
         VALARG (&A,&B),(2,A,B,2,R,NR),(&KEY(1),&KEY(2),&FTYPE),       X
               (4,,FIRST,LAST,HIEQ,2,,KEY,3,,GBL,XGBL)
         AIF   ('&B'   NE   'R' OR '&KEY(1)'   NE   'HIEQ').OK
 MNOTE *,'RECORD RETRIEVAL ILLEGAL WITH ''HIEQ'' OPTION'
.OK      ANOP
         RAFIOARG (&A.1,&B.1,&KEY(1),&KEY(2),&FTYPE,POINT)
&NAME    LA    &RAFIORG,&RAFIOPR
         RCALL AFIO
         MEND
