         MACRO
&NAME    RSKIP &A,&B,&REC=,&FTYPE=
         GBLA  &RAFIOPR,&RAFIORG
         GBLC  &RAFIOC1
         VALARG (&A,&B),(2,XK,NXK,3,,A,B),(&REC,&FTYPE),               X
               (2,,PREVIOUS,3,,GBL,XGBL)
         RAFIOXK &A,&B
         RAFIOARG (&A,&RAFIOC1.1,&REC,&FTYPE,NEXT,SKIP)
&NAME    LA    &RAFIORG,&RAFIOPR
         RCALL AFIO
         MEND
