         MACRO
&NAME    SYNCH &EP
         AIF   ('&EP' EQ '').E1
         AIF   ('&EP'(1,1) EQ '(').REG
&NAME    LA    15,&EP                            LOAD ENTRY POINT ADDR.
         AGO   .SVC
.REG     AIF   ('&EP' EQ '(15)').NAMEIT
&NAME    LR    15,&EP(1)                         LOAD ENTRY POINT ADDR.
.SVC     SVC   12                                ISSUE SYNCH SVC
         MEXIT
.NAMEIT  ANOP
&NAME    SVC   12                                ISSUE SYNCH SVC
         MEXIT
.E1      IHBERMAC 27,405
         MEND
