         TITLE '     IFDOLT08--OLD DPRINT  WRITE INTERFACE.'
         MACRO
&NAME    OLDCONV &TYPE,&FROM,&TO,&CNT
         LCLA  &FLAG
&NAME    LA    R14,R&SYSNDX .              RETURN ADDRESS
         L     R15,OLTTAB+12 .          TRANSIENT MANAGER ENTRY POINT
         CNOP  2,4 .                    BOUNDARY ALIGNMENT
         BALR  R1,R15  .                LINK TO TRANSIENT MANAGER
         DC    A(&FROM) .               FROM ADDRESS
         DC    A(&TO) .                 TO ADDRESS
         DC    A(*+4) .                 ADDRESS OF TYPE AND COUNT
         DC    XL2'00' .                BULL BYTES
         AIF   ('&TYPE' EQ 'EH').SKP1
&FLAG    SETA  32768
.SKP1    ANOP
         DC    AL2(&CNT+&FLAG) .        TYPE AND COUNT
R&SYSNDX DS    0H .                     RETURN POINT
         MEND
         TITLE '              IFDOLT08--OLD DPRINT  WRITE INTERFACE.'
         LCLA  &T,&SPN                                            0003
.@001    ANOP                                                     0003
IFDOLT08 CSECT ,                                                  0003
         BC    15,24(0,@F)
         DC    C'IFDOLT08 06 JUN 76'                             0003
         ST    @E,12(0,@D)                                        0003
         STM   @0,@C,20(@D)                                       0003
         BALR  @B,0                                               0003
@PSTART  DS    0H                                                 0003
         USING @PSTART+00000,@B                                   0003
         ST    @D,@SAV001+4                                       0003
         LA    @F,@SAV001                                         0003
         ST    @F,8(0,@D)                                         0003
         LR    @D,@F                                              0003
*   GEN(  USING CHASCT,2);               /* SET REG. 2 FOR DSECT      *
           USING CHASCT,2
         DS    0H
*   GENERATE DATA;
*         RESTRICT(2,3,5,6,7);           /* REGISTERS USED BY PROGRAM *
*         DCL R0 REG(0) PTR;
*         DCL R1 REG(1) PTR;             /* PARM LIST POINTER RECEIVED*
*         DCL R2 REG(2) PTR;             /* DSECT BASE REGISTER       *
*         DCL R3 REG(3) PTR;             /* ID AND ROUTINE NUMBER PTR *
*         DCL R4 REG(4) PTR;             /* CONTAIN SENSE COUNT       *
*         DCL R5 REG(5) PTR;             /* PRINT BUFFER POINTER      *
*         DCL R6 REG(6) PTR;             /* PARAMETER LIST POINTER    *
*         DCL R7 REG(7) PTR;                  /* WORK AREA POINTER    *
*         DCL R12 REG(12) PTR;
*         DCL R13 REG(13) PTR;           /* SAVE AREA POINTER         *
*         DCL R14 REG(14) PTR;                /* RETURN ADDR REGISTER *
*         DCL R15 REG(15) PTR;                /* RETURN CODE REGISTER *
*         DCL R9 REG(9) PTR;                  /* WORK REGISTER        *
*   GEN(EJECT);
         EJECT
         DS    0H
*         /************************************************************
*         /* THE FOLLOWING DEFINES AREAS REFERENCED EXTERNAL TO THIS  *
*         /* MODULE.                                                  *
*         /************************************************************
*
*         DCL CESWT2 CHAR(1) GENERATED;  /* INTERNAL SWITCHES         *
*         DCL TAB28 PTR GENERATED;       /* LINK POINTER              *
*         DCL DEVDEPAD PTR GENERATED;         /* DEVICE ADDRESS       *
*         DCL CESWT CHAR(1) GENERATED;        /* FLAG AREA            *
*         DCL PRTBUFR CHAR(124) GENERATED;    /* PRINT BUFFER         *
*         DECLARE
*             1 * BASED(ADDR(CESWT2)),
*               2 * BIT(2),
*               2 FECOND BIT(1);         /* FIRST ERROR CONDITION     *
*         DECLARE
*             1 * BASED(ADDR(CESWT)),    /* FLAG AREA                 *
*               2 * BIT(6),              /* NOT REFERENCED            *
*               2 FERINT BIT(1);         /* FIRST ERROR SWITCH        *
*         DCL CESWT6 CHAR(1) GENERATED;  /*                      M4504*
*         DECLARE
*             1 * BASED(DEVDEPAD),       /* DEVDEPAD POINTER TO AREA  *
*               2 * CHAR(6),             /* NOT REFERENCED            *
*               2 UNIT CHAR(2);          /* UNIT ADDRESS              *
*         DCL CHASCT CHAR(88) GENERATED; /* SECTION CONTROL TABLE     *
*         DECLARE
*             1 * BASED(ADDR(CHASCT)),   /* SECTION CONTROL TABLE ADR.*
*               2 * CHAR(2),             /* NOT REFERENCED            *
*               2 * CHAR(1),
*                 3 * BIT(7),            /* NOT REFERENCED            *
*                 3 FERCOM BIT(1),       /* FIRST ERROR FLAG          *
*               2 CHASCT3 CHAR(1),       /* FIRST ERROR SWITCH        *
*                 3 CHASCTB BIT(1),
*                 3 * BIT(5),            /* NOT REFERENCED            *
*                 3 ERRLPB BIT(1);       /* ERROR LOOP FLAG           *
*         DCL COMMINT PTR GENERATED;     /* ADDRESS OF COMMUNICATIONS *
*         DECLARE
*             1 BUFFERS BDY(DWORD),
*               2 * PTR,                 /* NOT USED                  *
*               2 FRMCON CHAR(1),        /* FORMS CONTROL CHARACTER   *
*               2 PRTBUFR1 CHAR(79),     /* BUFFER AREA               *
*               2 BUFFER2 CHAR(80);      /* BUFFER WORK AREA          *
*         DCL BUFR CHAR(79) BASED(R5);   /* BUFFER AREA               *
*  DCL CESWT5 CHAR(1) GENERATED;         /* OLTEP SWITCHES       M1390*
*  DCL 1 * BASED(ADDR(CESWT5)),          /* NA                   M1390*
*         2 * BIT(2),                    /* NA                   M1390*
*         2 FFEFLG BIT(1);               /* FIRST FIRST ERROR    M1390*
*   GEN(EJECT);
         EJECT
         DS    0H
*         /************************************************************
*         /* THE FOLLOWING MAP DESCRIBES THE PARAMETER LIST RECEIVED. *
*         /************************************************************
*
*         DECLARE
*             1 * BASED(R6),             /* REGISTER 6 CONTAINS THE   *
*               2 * CHAR(1),             /* ADDRESS OF THIS AREA.     *
*                 3 LASTFLG BIT(1),      /* LAST MESSAGE FLAG         *
*                 3 HEADFLG BIT(1),      /* HEADER REQUEST FLAG       *
*                 3 RSLTFLG BIT(1),      /* RESULT REQUEST FLAG       *
*                 3 OVRDFLG BIT(1),      /* OVER-RIDE REQUEST FLAG    *
*                 3 COMFLG BIT(1),       /* COMMENT REQUEST FLAG      *
*                 3 ERRFLG BIT(1),       /* ERROR MESSAGE FLAG        *
*                 3 * BIT(2),
*               2 FRMCNTL CHAR(1),       /* FORM CONTROL BYTE         *
*               2 * CHAR(1),
*               2 COUNT CHAR(1),         /* MESSAGE LENGTH            *
*               2 SUBCHK PTR;            /* POINTER TO SUBTASK OR     *
*                                        /* CHECKFIELDS               *
*   GEN(EJECT);
         EJECT
         DS    0H
*         /************************************************************
*         /* THE FOLLOWING MAP DESCRIBES THE SUBTASK AREA.            *
*         /************************************************************
*
*         DECLARE
*             1 * BASED(SUBCHK),         /* SUBCHK POINTS TO AREA.    *
*               2 * CHAR(1),             /* CONTAINS THE FOLLOWING    *
*                                        /* FLAGS:                    *
*                 3 DEVFLG BIT(1),       /* DEVICE INDICATOR          *
*                 3 LSTFLG BIT(1),       /* LAST PRINT INDICATOR      *
*                 3 * BIT(1),            /* NOT REFERENCED            *
*                 3 CCWFLG BIT(1),       /* CCW INDICATOR             *
*               2 LSTCCW CHAR(7);        /* CCW AREA                  *
*         DCL AREA CHAR(80) BASED(SUBCHK); /* COMMENT AREA            *
*   GEN(EJECT);
         EJECT
         DS    0H
*         /************************************************************
*         /* THE FOLLOWING MAP DESCRIBES THE CHECKFIELD AREA.         *
*         /************************************************************
*
*         DECLARE
*             1 * BASED(SUBCHK),
*               2 * CHAR(4),
*                 3 RELIF CHAR(1),       /* FLAG FIELDS INDICATING    *
*                                        /* AREAS TO BE PRINTED.      *
*                   4 RELAD BIT(1),      /* CSW COMMAND ADDRESS       *
*                   4 CC BIT(1),         /* CONDITION CODE            *
*                   4 CSWS1 BIT(1),      /* 1ST BYTE OF CSW STATUS    *
*                   4 CSWS2 BIT(1),      /* 2ND BYTE OF CSW STATUS    *
*                   4 CSWC BIT(1),       /* CSW COUNT                 *
*                   4 SNS BIT(1),        /* SENSE DATA                *
*                   4 * BIT(1),          /* NOT REFERENCED            *
*                   4 DATA BIT(1),       /* DATA FLAG                 *
*                 3 SNGLFLG BIT(1),      /* SINGLE LINE OF PRINT      *
*                 3 * BIT(7),            /* NOT USED                  *
*                 3 DTACNT CHAR(1),      /* DATA COUNT                *
*                 3 SCOUNT CHAR(1),      /* SENSE COUNT         Y02906*
*               2 TECBAD PTR,            /* TECB ADDRESS              *
*               2 EXPDINFO CHAR(16),     /* THIS FIELD CONTAINS       *
*                                        /* EXPECTED - CONDITION CODE *
*                                        /* CSW AND SENSE.            *
*               2 REDTADR PTR,           /* POINTER TO RECEIVED DATA  *
*               2 EXPDTADR PTR;          /* POINTER TO EXPECTED DATA  *
*         DCL RECEIV CHAR(256) BASED(REDTADR);  /* RECEIVED DATA AREA *
*         DCL EXPECT CHAR(256) BASED(EXPDTADR); /* EXPECTED DATA AREA *
*   GEN(EJECT);
         EJECT
         DS    0H
*         /************************************************************
*         /* THE FOLLOWING DEFINES INTERNAL WORK AREAS.               *
*         /************************************************************
*
*         DCL WKARA1 CHAR(96);           /* WORK AREA                 *
*         DCL WKAREA CHAR(96) BASED(R7); /* REGISTER 7 POINTS TO AREA *
*         DECLARE
*             1 * BASED(R13),            /* REG.13 POINTS TO SAVE AREA*
*               2 * PTR,                 /* NOT REFERENCED            *
*               2 OLTSVAD PTR;           /* POINTER TO OLT            *
*         DECLARE
*             1 * BASED(OLTSVAD),
*               2 * CHAR(32),            /* NOT REFERENCED            *
*               2 IDAD PTR;              /* POINTER TO OLT ID         *
*         DECLARE
*             1 * BASED(IDAD),
*               2 * CHAR(76),            /* NOT REFERENCED            *
*               2 ID CHAR(8),            /* OLT ID                    *
*               2 ROUTINE CHAR(1);       /* OLT ROUTINE NUMBER        *
*         DCL XLATE1 CHAR(10) INIT('0123456789');  /* TRANSLATE TABLE *
*   GEN(EJECT);
         EJECT
         DS    0H
*         /************************************************************
*         /* THE FOLLOWING MAPS DESCRIBE AREA'S REFERENCED FOR OPER-  *
*         /* ATOR COMMUNICATIONS                                      *
*         /************************************************************
*
*         DCL IFDMSG08 EXT ENTRY;        /* IFDOLT08'S MESSAGE MODULE *
*         DCL MSGMOD08 PTR INIT(ADDR(IFDMSG08)); /* PTR. TO IFDMSG08  *
*         DECLARE
*             1 * BASED(MSGMOD08),
*               2 MSG129 PTR;            /* ADDR OF MESSAGE IFD129I   *
*         DECLARE
*             1 * BASED(MSG129),         /* MESSAGE IFD129I           *
*               2 * CHAR(39),            /* MESSAGE                   *
*               2 MSGID CHAR(6),         /* OLT ID                    *
*               2 * CHAR(1),             /* BLANK                     *
*               2 MSGRTN CHAR(2),        /* OLT ROUTINE NUMBER        *
*               2 * CHAR(6),             /* MESSAGE                   *
*               2 MSGUNIT CHAR(3);       /* UNIT ADDRESS              *
*   GEN(EJECT);
         EJECT
         DS    0H
*         /************************************************************
*         /* THE FOLLOWING MAP DESCRIBES THE TECB AREA                *
*         /************************************************************
*
*         DECLARE
*             1 * BASED(TECBAD),         /* TECB PTR IN CHECKFLD AREA *
*               2 * CHAR(4),             /* NOT REFERENCED            *
*               2 RCVDINFO CHAR(16);     /* THIS FIELD CONTAINS       *
*                                        /* RECEIVED - CONDITION CODE *
*                                        /* CSW AND SENSE.            *
*   GEN(EJECT);
         EJECT
         DS    0H
*         /************************************************************
*         /* THE FOLLOWING CODE WILL INITIALIZE REGISTERS AND DETER-  *
*         /* MINE THE FUNCTION OR FUNCTIONS TO BE PERFORMED.          *
*         /************************************************************
*
*         R6 = R1;                       /* SET PARAMETER LIST PTR.   *
         LR    @6,@1                                              0061
* PRT000:
*         R5 = ADDR(PRTBUFR1);           /* SET PRINT BUFFER PTR.     *
PRT000   LA    @5,BUFFERS+5                                       0062
*         R7 = ADDR(WKARA1);             /* SET WORK AREA PTR.        *
         LA    @7,WKARA1                                          0063
*          PRTBUFR(1:1)=' ';    /* CLEAR BUFFER               @ZA08978*
         MVI   PRTBUFR,C' '                                       0064
*          PRTBUFR(2:124)=PRTBUFR(1:123);                   /*@ZA08978*
         MVC   PRTBUFR+1(123),PRTBUFR                             0065
*          BUFFERS(1:1)=' ';    /* CLEAR BUFFERS              @ZA08978*
         MVI   BUFFERS,C' '                                       0066
*          BUFFERS(2:164)=BUFFERS(1:163);                   /*@ZA08978*
         MVC   BUFFERS+1(163),BUFFERS                             0067
*         IF FRMCNTL = 'D9'X THEN        /* FORMS CONTROL - RESTORE   *
         CLI   1(@6),X'D9'                                        0068
         BC    07,@9FF                                            0068
*           DO;                          /* DO THE FOLLOWING:         *
*           PRTBUFR(1:1) = '1B'X;        /* SET RESTORE CONTROL       *
         MVI   PRTBUFR,X'1B'                                      0070
*   GEN(  PWRT  SIZE=80);                /* INVOKE PRINT ROUTINE      *
           PWRT  SIZE=80
         DS    0H
*           GO TO PRT0002;
         BC    15,PRT0002                                         0072
*           END;                         /* END OF RESTORE ROUTINE    *
*         IF FRMCNTL = 'F3'X THEN        /* FORMS CONTROL - SPACE 3   *
@9FF     CLI   1(@6),X'F3'                                        0074
         BC    07,@9FE                                            0074
*           DO;                          /* DO THE FOLLOWING:         *
*           FRMCON = '19'X;              /* SET SPACE 3 CONTROL       *
         MVI   BUFFERS+4,X'19'                                    0076
*           GO TO PRT0001;
         BC    15,PRT0001                                         0077
*           END;                         /* END OF SPACE 3 ROUTINE    *
*         IF FRMCNTL = 'F2'X THEN        /* FORMS CONTROL - SPACE 2   *
@9FE     CLI   1(@6),X'F2'                                        0079
         BC    07,@9FD                                            0079
*           DO;                          /* DO THE FOLLOWING:         *
*           FRMCON = '11'X;              /* SET SPACE 2 CONTROL       *
         MVI   BUFFERS+4,X'11'                                    0081
*           GO TO PRT0001;
         BC    15,PRT0001                                         0082
*           END;                         /* END OF SPACE 2 ROUTINE    *
* PRT0002:
*         FRMCON = '09'X;                /* SET DEFAULT OF SPACE 1    *
@9FD     EQU   *                                                  0084
PRT0002  MVI   BUFFERS+4,X'09'                                    0084
* PRT0001:
*         IF HEADFLG = '1'B THEN         /* REQUEST FOR HEADER PRINT  *
PRT0001  TM    0(@6),B'01000000'                                  0085
*           GO TO PRT003;                /* YES-GO TO HEADER ROUTINE  *
         BC    01,PRT003                                          0086
*         IF RSLTFLG = '1'B THEN         /* REQUEST FOR RESULT PRINT  *
         TM    0(@6),B'00100000'                                  0087
*           GO TO PRT010;                /* YES-GO TO RESULT ROUTINE  *
         BC    01,PRT010                                          0088
*         IF COMFLG = '1'B THEN          /* REQUEST FOR COMMENT PRINT *
         TM    0(@6),B'00001000'                                  0089
*           GO TO PRT022;                /* YES-GO TO COMMENT ROUTINE *
         BC    01,PRT022                                          0090
*         BUFR(2:4) = 'BUG';             /* NO- INDICATE ERROR        *
         MVC   1(3,@5),@C10                                       0091
*         PRTBUFR(1:80) = BUFFERS(5:84); /* SET PRINT BUFFER          *
         MVC   PRTBUFR(80),BUFFERS+4                              0092
*   GEN(  PWRT  SIZE=80);                /* INVOKE PRINT ROUTINE      *
           PWRT  SIZE=80
         DS    0H
*
* PRT001:
*  IF FFEFLG='1'B THEN                   /* CHECK SWITCH         M1390*
PRT001   TM    A00012,B'00100000'                                 0094
*    GOTO PRT002;                        /* PREVIOUS FIRST ERROR M1390*
         BC    01,PRT002                                          0095
*         IF FERCOM = '0'B THEN          /* 1ST ERROR COMMUNICATION   *
         TM    A00006+2,B'00000001'                               0096
*           GO TO PRT002;                /* GO CHECK ERROR LOOP       *
         BC    08,PRT002                                          0097
*         IF CHASCTB = '0'B THEN         /* FIRST ERROR COMMUNICATION *
         TM    A00006+3,B'10000000'                               0098
*           GO TO PRT002;                /* GO CHECK ERROR LOOP       *
         BC    08,PRT002                                          0099
* PRT001C:
*         FERINT = '1'B;                 /* SET FIRST ERROR SWITCH    *
PRT001C  OI    A00002,B'00000010'                                 0100
*         MSGID = ID(1:6);               /* SET OLT ID IN MESSAGE     *
         L     @4,4(0,@D)          
         L     @4,32(0,@4)         A00027                         0101
         L     @C,MSGMOD08                                        0101
         L     @C,0(0,@C)          A00031                         0101
         MVC   39(6,@C),76(@4)                                    0101
*         R9 = ROUTINE;                  /* SETUP FOR TRANSLATE       *
         SR    @9,@9                                              0102
         IC    @9,84(0,@4)                                        0102
*   GENERATE;
         CVD   R9,BUFFER2+4
         UNPK  BUFFER2(2),BUFFER2+10(2)
         NI    BUFFER2+1,X'0F'
         TR    BUFFER2+1(1),XLATE1
         DS    0H
*         MSGRTN = BUFFER2(1:2);         /* SET OLT ROUTINE IN MESSAGE*
         MVC   46(2,@C),BUFFERS+84                                0104
*         BUFFER2(9:10) = UNIT;          /* SET UNIT ADDRESS IN BUFFER*
         L     @8,DEVDEPAD                                        0105
         MVC   BUFFERS+92(2),6(@8)                                0105
*         R9 = ADDR(LINK1);              /* SET LINK ADDRESS POINTER  *
         LA    @9,LINK1                                           0106
*         GO TO CONVERT1;                /* GO TO CONVERT ROUTINE     *
         BC    15,CONVERT1                                        0107
* LINK1:
*         MSGUNIT = BUFFER2(28:30);      /* SET UNIT ADDRESS IN MSG.  *
LINK1    L     @4,MSGMOD08                                        0108
         L     @4,0(0,@4)          A00031                         0108
         MVC   54(3,@4),BUFFERS+111                               0108
*         R9 = MSG129;                   /* SET MESSAGE POINTER       *
         L     @C,MSGMOD08                                        0109
         L     @9,0(0,@C)                                         0109
*   GEN(  PWTO  REG=(R9));               /* INVOKE PARALLEL PRINT RTN *
           PWTO  REG=(R9)
         DS    0H
*  FFEFLG='1'B;                          /* FIRST FIRST ERROR    M1390*
         OI    A00012,B'00100000'                                 0111
* PRT001B:
*         FECOND = '1'B;                 /* SET FIRST ERROR CONDITION *
PRT001B  OI    A00000,B'00100000'                                 0112
*  CESWT6=CESWT6&'7F'X;                  /* CLEAR 1ST BIT IN SW  M4504*
         NI    CESWT6,X'7F'                                       0113
*         R15 = TAB28;                   /* SET LINK POINTER          *
         L     @F,TAB28                                           0114
*   GEN;
         L     R13,4(R13)          RESTORE REGISTERS
         L     R14,12(R13)         FOR RETURN TO TRANS. MANAGER
         LM    R0,R12,20(R13)
         DS    0H
*         GOTO R15;                      /* RETURN TO TRANS. MANAGER  *
         BCR   15,@F                                              0116
*
* PRT002:
*         IF ERRLPB = '0'B THEN          /* IF ERROR LOOP IS NOT ON   *
PRT002   TM    A00006+3,B'00000010'                               0117
*           GO TO FINISH;                /* GO TO EXIT ROUTINE        *
         BC    08,FINISH                                          0118
*         CHASCT3 = CHASCT3 & 'DF'X;     /* RESET CATASTROPHIC FLAG   *
         NI    A00006+3,X'DF'                                     0119
*         GO TO FINISH;             /* GO TO EXIT ROUTINE             *
         BC    15,FINISH                                          0120
*   GEN(EJECT);
         EJECT
         DS    0H
*         /************************************************************
*         /* THE FOLLOWING ROUTINE WILL PRINT HEADING REQUESTS        *
*         /************************************************************
* PRT003:
*         IF OVRDFLG = '1'B THEN         /* OVER-RIDE REQUEST         *
PRT003   TM    0(@6),B'00010000'                                  0122
*           GO TO PRT009;                /* YES - GO CHECK LAST ENTRY *
         BC    01,PRT009                                          0123
*         IF ERRFLG = '0'B THEN          /* ERROR PRINT REQUEST       *
         TM    0(@6),B'00000100'                                  0124
*           GO TO PRT004;                /* NO- GO TO HEADER SETUP    *
         BC    08,PRT004                                          0125
*         BUFR(1:1) = '*';               /* INDICATE ERROR MESSAGE    *
         MVI   0(@5),C'*'                                         0126
*         R5 = R5 + 1;                   /* INCREMENT PRT BUFFER PTR  *
         AH    @5,@D1                                             0127
* PRT004:
*         BUFR(1:8) = ID;                /* SET ID IN HEADER          *
PRT004   L     @4,4(0,@D)          
         L     @4,32(0,@4)         A00027                         0128
         MVC   0(8,@5),76(@4)                                     0128
*         R5 = R5 + 9;                   /* INCREMENT PRT BUFFER PTR  *
         AH    @5,@D2                                             0129
*         R9 = ROUTINE;                  /* SETUP FOR TRANSLATE       *
         SR    @9,@9                                              0130
         IC    @9,84(0,@4)                                        0130
*   GENERATE;
         CVD   R9,BUFFER2+4
         UNPK  BUFFER2(2),BUFFER2+10(2)
         NI    BUFFER2+1,X'0F'
         TR    BUFFER2+1(1),XLATE1
         DS    0H
*         BUFR(1:2) = BUFFER2(1:2);      /* SET ROUTINE NUMBER IN MSG.*
         MVC   0(2,@5),BUFFERS+84                                 0132
*         R5 = R5 + 3;                   /* INCREMENT PRT BUFFER PTR  *
         AH    @5,@D3                                             0133
*         BUFFER2(2:8) = LSTCCW;         /* GET LISTING & CCW ADDRESS *
         L     @C,4(0,@6)          
         MVC   BUFFERS+85(7),1(@C)                                0134
*         BUFFER2(9:10) = UNIT;          /* GET UNIT ADDRESS          *
         L     @8,DEVDEPAD                                        0135
         MVC   BUFFERS+92(2),6(@8)                                0135
*         R9 = ADDR(LINK2);              /* SET LINK ADDRESS POINTER  *
         LA    @9,LINK2                                           0136
*         GO TO CONVERT1;                /* GO TO CONVERT ROUTINE     *
         BC    15,CONVERT1                                        0137
* LINK2:
*         IF LSTFLG = '0'B THEN          /* IS LISTING ADDRESS PRESENT*
LINK2    L     @4,4(0,@6)          
         TM    0(@4),B'01000000'                                  0138
*           GO TO PRT005;                /* NO-GO CHECK FOR CCW       *
         BC    08,PRT005                                          0139
*         BUFR(1:3) = 'IC-';             /* SET PREFIX IN MESSAGE     *
         MVC   0(3,@5),@C15                                       0140
*         BUFR(4:8) = BUFFER2(14:18);    /* SET LISTING ADDRESS IN MSG*
         MVC   3(5,@5),BUFFERS+97                                 0141
*         R5 = R5 + 9;                   /* INCREMENT PRT BUFFER PTR  *
         AH    @5,@D2                                             0142
* PRT005:
*         IF CCWFLG = '0'B THEN          /* CCW PRESENT               *
PRT005   L     @4,4(0,@6)          
         TM    0(@4),B'00010000'                                  0143
*           GO TO PRT006;                /* NO-GO CHECK FOR DEVICE    *
         BC    08,PRT006                                          0144
*         BUFR(1:4) = 'CCW-';            /* SET PREFIX IN MESSAGE     *
         MVC   0(4,@5),@C16                                       0145
*         BUFR(5:9) = BUFFER2(22:26);    /* SET CCW IN MESSAGE        *
         MVC   4(5,@5),BUFFERS+105                                0146
*         R5 = R5 + 10;                  /* INCREMENT PRT BUFFER PTR  *
         AH    @5,@D4                                             0147
* PRT006:
*         IF DEVFLG = '0'B THEN          /* DEVICE PRESENT            *
PRT006   L     @4,4(0,@6)          
         TM    0(@4),B'10000000'                                  0148
*           GO TO PRT008;                /* NO-GO CHECK               *
         BC    08,PRT008                                          0149
*         BUFR(1:9) = 'I/O ADDR-';       /* SET I/O ADDRESS PREFIX    *
         MVC   0(9,@5),@C17                                       0150
*         BUFR(10:12) = BUFFER2(28:30);  /* SET UNIT ID               *
         MVC   9(3,@5),BUFFERS+111                                0151
*         R5 = R5+13;                    /* INCREMENT PRT BUFFER PTR. *
         AH    @5,@D5                                             0152
* PRT008:
*         PRTBUFR(1:80) = BUFFERS(5:84); /* SET PRINT BUFFER          *
PRT008   MVC   PRTBUFR(80),BUFFERS+4                              0153
*   GEN(  PWRT  SIZE=80);                /* INVOKE PRINT ROUTINE      *
           PWRT  SIZE=80
         DS    0H
* PRT009:
*         IF LASTFLG = '1'B THEN         /* LAST ENTRY                *
PRT009   TM    0(@6),B'10000000'                                  0155
*           GO TO PRT001;                /* YES-GO CHECK FIRST ERROR  *
         BC    01,PRT001                                          0156
*         R6 = R6 + 8;                   /* SET POINTER TO NEXT ENTRY *
         AH    @6,@D6                                             0157
*           GO TO PRT000;                /* GO BACK TO THE BEGINNING  *
         BC    15,PRT000                                          0158
*   GEN(EJECT);
         EJECT
         DS    0H
*         /************************************************************
*         /* THE FOLLOWING ROUTINE WILL PRINT RESULT REQUESTS         *
*         /************************************************************
* PRT010:
*         IF OVRDFLG = '1'B THEN         /* OVER-RIDE ON              *
PRT010   TM    0(@6),B'00010000'                                  0160
*           GO TO PRT009;                /* YES-CHECK FOR LAST ENTRY  *
         BC    01,PRT009                                          0161
*         R5 = ADDR(PRTBUFR1);           /* SET PRINT BUFFER POINTER  *
         LA    @5,BUFFERS+5                                       0162
*         BUFR(1:5) = 'RCVD ';           /* SET RECEIVED PREFIX       *
         MVC   0(5,@5),@C18                                       0163
*         BUFFER2(1:5) = 'XPCTD';        /* SET EXPECTED PREFIX       *
         MVC   BUFFERS+84(5),@C19                                 0164
*         R5 = R5+6;                     /* INCREMENT PRT BUFFER PTR  *
         AH    @5,@D7                                             0165
*         WKAREA(1:16) = RCVDINFO;       /* SET RECEIVED CONDITION    *
         L     @4,4(0,@6)          
         L     @4,4(0,@4)          A00021                         0166
         MVC   0(16,@7),4(@4)                                     0166
*                                        /* CODE,CSW AND SENSE IN     *
*                                        /* WORK AREA.                *
*         WKAREA(17:32) = EXPDINFO;      /* SET EXPECTED CONDITION    *
         L     @C,4(0,@6)          
         MVC   16(16,@7),8(@C)                                    0167
*                                        /* CODE,CSW AND SENSE IN     *
*                                        /* WORK AREA.                *
*         R9 = ADDR(LINK3);              /* SET LINK ADDRESS POINTER  *