         TITLE 'IFDOLT22 ALLOCATE MODULE'
         TITLE 'IFDOLT22 ALLOCATE MODULE'
         PRINT OFF
         MACRO
&NAME   ALOCAT &CDSADR=0,&TYPE=,&SCRATCH=,&MF=,&MAP=NO,&LSTNAME=
.*
         GBLB  &EXECUTV,&E536454
         LCLA  &A,&B,&COUNT
         LCLB  &SWITCH,&B1,&B2,&B3
         LCLC  &F,&Z,&CHAR
.*
         AIF   ('&MAP' EQ 'YES').MAP1
         AIF   (T'&MF EQ 'O').STD
         AIF   ('&MF' EQ 'L' OR '&MF' EQ 'S').STD
         AIF   ('&MF'(1,3) NE '(E,').MFERROR
&CHAR    SETC  '&NAME'
         AIF   ('&MF'(4,3) EQ '(1)').RG1
         AIF   ('&MF'(4,1) EQ '(').RG2
&CHAR    LA    R1,&MF(2) .         ADDRESS OF PARAMETER LIST
&CHAR    SETC  ' '
         AGO   .RG1
.RG2     ANOP
&COUNT   SETA  K'&MF(2)-2
&F       SETC  '&MF(2)'(2,&COUNT)
         AIF   ('&F'(1,1) EQ 'R').C724
&CHAR    LR    R1,R&F .            ADDRESS OF PARAMETER LIST
&CHAR    SETC  ' '
         AGO   .RG1
.C724    ANOP
&CHAR    LR    R1,&F .             ADDRESS OF PARAMETER LIST
&CHAR    SETC  ' '
.RG1     ANOP
&CHAR    BAL   R14,#EXIT .        BRANCH TO LINKAGE SUBROUTINE
         MEXIT
.MFERROR MNOTE 8,'MF VALUE (&MF) INCORRECT, NO STATEMENTS GENERATED.'
         MEXIT
.STD     ANOP
&B1      SETB  (N'&TYPE GT 0)
&B2      SETB  (T'&SCRATCH NE 'O')
         AIF   (&B1+&B2 EQ 2).ERR
         AIF   (&B1).ALO
         AIF   (&B2).ALO2
         AGO   .ALO3
.ALO     ANOP
         AIF   (N'&TYPE NE 3).ERR1
&A       SETA  1
.TST1    ANOP
         AIF   (K'&TYPE(2) EQ 0).ERR2
.TST2    ANOP
         AIF   (K'&TYPE(3) EQ 0).ERR3
         AIF   (&B3).EXIT
         AIF   ('&TYPE(1)' NE 'CYL').ALO1
&B       SETA  200
         AGO   .ALO3
.ALO1    ANOP
         AIF   (K'&TYPE(1) EQ 0 OR '&TYPE(1)' EQ 'TRK').ALO1A
         MNOTE 8,'TYPE= PARAMETER INCORRECTLY SPECIFIED.'
&B3      SETB  1
.ALO1A   ANOP
&B       SETA  136
         AGO   .ALO3
.ALO2    ANOP
&A       SETA  2
.ALO3    ANOP
         AIF   ('&MF' EQ 'L').LIST
&NAME    LA    R14,R&SYSNDX .     RETURN ADDRESS
         CNOP  0,4
         BAL   R1,#EXIT .          BRANCH TO LINKAGE SUBROUTINE
&CHAR    SETC  '&LSTNAME'
         AGO   .STD1
.LIST    ANOP
&CHAR    SETC  '&NAME'
.STD1    ANOP
         AIF   (&EXECUTV).OLTSEP
&CHAR    DC    B'00000000' .       CONTROL PROGRAM FLAGS
         AGO   .OLTSEP1
.OLTSEP  ANOP
&CHAR    DC    B'00000001' .       CONTROL PROGRAM FLAGS
.OLTSEP1 ANOP
         DC    AL1(2) .            MACRO LEVEL
         DC    CL2'22' .           MACRO ID
         DC    A(&CDSADR) .        ADDRESS OF CDS INFO
         AIF   (&B1).ALO4
         DC    A(0) .              ADDRESS OF EXTENTS
         AGO   .ALO5
.ALO4    ANOP
         DC    A(&TYPE(3)) .       ADDRESS OF EXTENTS
.ALO5    ANOP
         AIF   (&B1).ALO6
         DC    AL3(0)              AMOUNT OF SPACE REQUIRED
         AGO   .ALO7
.ALO6    ANOP
         DC    AL3(&TYPE(2)) .     AMOUNT OF SPACE REQUIRED
.ALO7    ANOP
         DC    AL1(&B) .           TYPE
*
*                                  TYPE FLAGS DEFINITION:
*                                  200  CYL
*                                  136  TRK
*
         DC    AL1(&A) .           FUNCTION FLAGS
*
*                                  FUNCTION FLAGS DEFINITION:
*                                  0  DEMOUNTABLE ALLOCATION
*                                  1  ALLOCATE
*                                  2  SCRATCH
         AIF   ('&MF' EQ 'L').EXIT
R&SYSNDX DS    0H .                RETURN ON HALFWORD BOUNDARY
         AGO   .EXIT
.ERR     MNOTE 8,'TYPE= AND SCRATCH= MAY NOT BE USED TOGETHER.'
&B3      SETB  1
         AGO   .ALO
.ERR1    MNOTE 8,'TYPE= PARAMETER INCORRECTLY SPECIFIED.'
&B3      SETB  1
         AGO   .TST1
.ERR2    MNOTE 8,'AMOUNT MUST BE SPECIFIED WHEN USING TYPE=.'
&B3      SETB  1
         AGO   .TST2
.ERR3    MNOTE 8,'EXTENT ADDRESS MUST BE SPECIFIED WHEN USING TYPE=.'
         MEXIT
.MAP1    ANOP
ALOMAP   DSECT
&Z       SETC  '$'
         AIF   (&E536454).ZIPPER
         DC    XL1'0' .            CONTROL PROGRAM FLAGS
         DC    XL1'0' .            MACROL LEVEL
         DC    XL2'0' .            MACROL ID
         AGO   .ZIPPED
.ZIPPER  ANOP
&Z.ALTORMG DC  XL1'0' .            CONTROL PROGRAM FLAGS
&Z.ALOLEVL DC  XL1'0' .            MACRO LEVEL
&Z.ALOIDNT DC  XL2'0' .            MACRO ID
.ZIPPED  ANOP
&Z.ALOCDSA DC  A(0) .              ADDRESS OF CDS INFO
&Z.ALOCADR DC  A(0) .              ADDRESS OF EXTENTS
&Z.ALOAMT  DC  XL3'0' .            AMOUNT OF SPACE REQUIRED
&Z.ALOFLGT DC  XL1'0' .            TYPE
&Z.ALOFLAG DC  XL1'0' .            FUNCTION FLAGS
.EXIT    MEND
         EJECT
         PRINT ON
         LCLA  &T,&SPN                                            0003
.@001    ANOP                                                     0003
IFDOLT22 CSECT ,                                                  0003
         BC    15,24(0,@F)
         DC    C'IFDOLT22 29 MAR 74'                             0003
         ST    @E,12(0,@D)                                        0003
         STM   @0,@C,20(@D)                                       0003
         BALR  @B,0                                               0003
@PSTART  DS    0H                                                 0003
         USING @PSTART+00000,@B                                   0003
         ST    @D,@SAV001+4                                       0003
         LA    @F,@SAV001                                         0003
         ST    @F,8(0,@D)                                         0003
         LR    @D,@F                                              0003
DIAG     EQU   59
THREETWO EQU   32
         USING ALOMAP,5
         USING CHASCT,2
         DS    0H
*         R5=R1;                    /* SAVE REG. 1 IN REG. 5.         *
         LR    @5,@1                                              0073
*         R9=ADDR(IFDMSG22);        /* POINTER TO MESSAGE MODULE 21050*
         L     @C,@V1              ADDRESS OF IFDMSG22            0074
         LR    @9,@C                                              0074
*         R7=UNICTR;                /* GET NUMBER OF DEVICES UNDER TST*
         SR    @7,@7                                              0075
         IC    @7,UNICTR                                          0075
*         R3=DEVTBPTR;              /* INITIALIZE DEVTAB POINTER      *
         L     @3,DEVTBPTR                                        0076
*         ALOCATSW='00'X;           /* CLEAR IFDOLT22'S FLAGS AND     *
         MVI   ALOCATSW,X'00'                                     0077
*                                   /* DECODE PARAMETERS.             *
*         IF RETAINAC='1'B THEN          /* IS REI ACTIVE?      S20203*
         TM    A00019,B'10000000'                                 0078
         BC    12,@9FF                                            0078
*         DPMSGREI='1'B;                /* REM SITE GETS MSG    XM0097*
         OI    A00022,B'00000001'                                 0079
* ALOCAT05:
*         IF STAEXIT='1'B THEN      /* IS STAE EXIT IN CONTROL.       *
@9FF     EQU   *                                                  0080
ALOCAT05 TM    OLTEPSW6,B'00000001'                               0080
         BC    12,@9FE                                            0080
*           DO;                     /* YES,                           *
*           IF NDR='1'B THEN        /* ARE THERE DEVICES ENTERED.     *
         TM    OLTEPSW2,B'00000100'                               0082
*             GO TO ALOCAT50;       /* NO, RETURN TO STAE EXIT ROUTINE*
         BC    01,ALOCAT50                                        0083
*           IF ALLOCATE='0'B THEN   /* WAS THIS DEVICE ALLOCATED.     *
         TM    12(@3),B'00001000'                                 0084
         BC    05,@9FD                                            0084
*             DO;                   /* NO,                            *
*             R7=R7-1;              /* DECREMENT NUMBER OF DEVICES.   *
         BCTR  @7,0                                               0086
*             R3=R3+56;             /* POINT TO NEXT DEVICE      21050*
         AH    @3,@D1                                             0087
*                                   /* IN TABLE.                 21050*
*             IF R7=0 THEN          /* ARE ALL DEVICES CHECKED.       *
         LTR   @7,@7                                              0088
*               GO TO ALOCAT50;     /* YES, RETURN TO STAE EXIT.      *
         BC    08,ALOCAT50                                        0089
*             GO TO ALOCAT05;       /* CHECK NEXT DEVICE.             *
         BC    15,ALOCAT05                                        0090
*             END;
*             UNUNIT1(5:14)=DDNAME(ALCINDEX); /* PUT DDNAME     YM7637*
@9FD     SR    @C,@C                                              0092
         IC    @C,54(0,@3)                                        0092
         MH    @C,@D2                                             0092
         LA    @E,DDNAME-10(@C)                                   0092
         MVC   UNTUNIT+4(10),0(@E)                                0092
*                                        /* IN DYN UNALLOC PLISTYM7637*
*           GO TO ALOCAT10;         /* DEVICE WAS ALLOCATED.          *
         BC    15,ALOCAT10                                        0093
*           END;
*         IF ALOLEVL^='02'X×        /* IS THIS MACRO LEVEL SUPPORTED. *
*           NDR='1'B THEN           /* NO, RETURN CODE 04. ARE DEVICES*
@9FE     CLI   ALOLEVL,X'02'                                      0095
         BC    07,@9FC                                            0095
         TM    OLTEPSW2,B'00000100'                               0095
         BC    12,@9FB                                            0095
*             GO TO ALOCAT52;       /* ENTERED. NO, RETURN CODE 04.   *
         BC    03,ALOCAT52                                        0096
*         IF ALOCDSA=0 THEN         /* FIND THE DEVICE ADDRESS THAT   *
@9FB     SR    @F,@F                                              0097
         C     @F,ALOCDSA                                         0097
         BC    07,@9FA                                            0097
*           DO;                     /* WANTS ALLOCATION.              *
*           R3=PRIDVPTR;            /* PRIMARY ALLOCATION, GET POINTER*
         L     @3,PRIDVPTR                                        0099
*           GO TO ALOCAT10;         /* FROM COMMON AREA.              *
         BC    15,ALOCAT10                                        0100
*           END;
*         DO I=R7 TO 1 BY -1;       /* SECONDARY ALLOCATION, FIND21050*
@9FA     LR    @4,@7                                              0102
         LTR   @4,@4                                              0102
         BC    12,@DO9F8                                          0102
*         IF CDSDEVAD=DEVAD THEN    /* ENTRY IN DEVTABLE THAT MATCHES *
@DO9F9   L     @C,ALOCDSA                                         0103
         CLC   0(4,@C),32(@3)                                     0103
         BC    07,@9F5                                            0103
*           DO;                     /* DEVICE REQUESTING THE          *
*           IF GRABBED='1'B×        /* ALLOCATION. IS IT THE     21050*
*              PRIMARY='1'B THEN    /* RIGHT MATCH. YES,         21050*
         TM    12(@3),B'00000100'                                 0105
         BC    01,@9F4                                            0105
         TM    12(@3),B'01000000'                                 0105
         BC    12,@9F3                                            0105
*                GO TO ALOCAT10;    /* CONTINUE. NO, FIND RIGHT  21050*
         BC    03,ALOCAT10                                        0106
*           END;                    /* DEVICE.                   21050*
@9F3     EQU   *                                                  0107
*         R3=R3+56;                 /* CHECK NEXT DEVICE IN      21050*
@9F5     AH    @3,@D1                                             0108
*                                   /* DEVICE TABLE.             21050*
*         END;
*         GO TO ALOCAT52;           /* RETURN CODE 04.                *
         BCT   @4,@DO9F9                                          0109
         BC    15,ALOCAT52                                        0110
* ALOCAT10:
*         /************************************************************
*         /*             ROUTINE TO CHECK DEVICE STATUS               *
*         /************************************************************
*         R8=UCBPTR;                /* GET POINTER TO UCB.       21050*
ALOCAT10 L     @8,8(0,@3)                                         0111
*         ROPTMIN2='22';            /* SET UP TO PASS SVC SECURITY.   *
         MVC   ROPTMIN2(2),@C5                                    0112
*         UCBADDRS=UCBADDR;         /* PUT DEVICE REQUESTING          *
         MVC   SVCPLIST(4),8(@3)                                  0113
*                                   /* ALLOCATION UCB ADDRESS IN FIRST*
*                                   /* WORD OF SVC PARAMETER LIST.    *
*         R0=ADDR(ROPT);            /* INITIALIZE POINTER TO SVCPLIST.*
         LA    @0,ROPT                                            0114
*         R1='003C'X;               /* PUT PROPER CALL CODE IN  YM7282*
         L     @1,@X6                                             0115
*                                   /* REG. 1 FOR SVC CALL.           *
*         GEN(SVC   DIAG);          /* ISSUE SVC FOR DEVICE STATUS.   *
         SVC   DIAG
         DS    0H
*         IF STAEXIT='1'B THEN      /* IS STAE EXIT IN CONTROL.       *
         TM    OLTEPSW6,B'00000001'                               0117
*           GO TO ALOCAT42;         /* YES, PERFORM SCRATCH.          *
         BC    01,ALOCAT42                                        0118
*         IF STATUS='1'B&           /* CHECK TO MAKE SURE DEVICE 21050*
*           DEVSTAT='1'B THEN       /* STATUS HAS NOT CHANGED,   21050*
         TM    3(@8),B'10000000'                                  0119
         BC    12,@9F2                                            0119
         TM    12(@3),B'10000000'                                 0119
*             GO TO ALOCAT20;       /* SINCE TEST RUN DEFINITION 21050*
         BC    03,ALOCAT20                                        0120
*         IF STATUS='0'B&           /* TIME.                     21050*
*           DEVSTAT='0'B THEN       /*                           21050*
@9F1     EQU   *                                                  0121
@9F2     TM    3(@8),B'10000000'                                  0121
         BC    05,@9F0                                            0121
         TM    12(@3),B'10000000'                                 0121
*             GO TO ALOCAT20;       /*                           21050*
         BC    10,ALOCAT20                                        0122
*         /************************************************************
*         /*     PWTO MESSAGE INDICATING DEVICE STATUS CHANGED.       *
*         /************************************************************
*         R1=MSGPTR56;              /* GET POINTER TO MESSAGE IFD156I.*
@9EF     EQU   *                                                  0123
@9F0     L     @1,8(0,@9)                                         0123
*         MSG56I(16:23)=EBCDICAD;   /* PUT EBCDIC DEVICE ADDR IN 21050*
         MVC   19(8,@1),0(@3)                                     0124
*                                   /* MESSAGE.                       *
*         GEN(PWTO  REG=(1));       /* PRINT MESSAGE.                 *
         PWTO  REG=(1)
         DS    0H
*         BYPTST='1'B;              /* SET FLAG TO BYPASS TESTS.      *
         OI    OLTEPSW3,B'00100000'                               0126
*         SAVE4=SCHEDSA;            /* GET SET TO RETURN TO SCHEDULER.*
         MVC   4(4,@D),SCHEDSA                                    0127
*         GO TO ALOCAT60;           /* RETURN TO SCHEDULER.           *
         BC    15,ALOCAT60                                        0128
* ALOCAT20:
*         /************************************************************
*         /*            DETERMINE WHAT IS REQUESTED BY USER           *
*         /************************************************************
*         IF CLASS^='20'X THEN      /* IS DEVICE DASD. NO, RETURN21050*
ALOCAT20 CLI   18(@8),X'20'                                       0129
*           GO TO ALOCAT52;         /* CODE 04.                  21050*
         BC    07,ALOCAT52                                        0130
*         IF TYPE>'05'X&            /* LEGAL DEVICE              01906*
*           TYPE<'10'X THEN         /*                           21050*
         CLI   19(@8),X'05'                                       0131
         BC    12,@9EE                                            0131
         CLI   19(@8),X'10'                                       0131
*             GO TO ALOCAT22;       /*                           21050*
         BC    05,ALOCAT22                                        0132
*         GO TO ALOCAT52;           /*                           21050*
         BC    15,ALOCAT52                                        0133
* ALOCAT22:
*         IF ALCINDEX='00'X THEN    /* HAS THIS BEEN ALLOCATED  YM7282*
ALOCAT22 CLI   54(@3),X'00'                                       0134
*           GO TO ALOCAT34;         /* PREVIOUSLY. NO, CONTINUE YM7282*
         BC    08,ALOCAT34                                        0135
*                                   /* YES, PLACE DDNAME IN SVC YM7282*
*                                   /* 99 PLIST FOR UNALLOC     YM7282*
*         UNUNIT1(5:14)=DDNAME(ALCINDEX); /*                    YM7282*
         SR    @C,@C                                              0136
         IC    @C,54(0,@3)                                        0136
         MH    @C,@D2                                             0136
         LA    @E,DDNAME-10(@C)                                   0136
         MVC   UNTUNIT+4(10),0(@E)                                0136
* ALOCAT34:                         /*                          YM7282*
*         IF ALOFLAG='02'X THEN     /* IS A SCRATCH REQUESTED.        *
ALOCAT34 CLI   ALOFLAG,X'02'                                      0137
*           GO TO ALOCAT40;         /* YES, GO TO SCRATCH ROUTINE.    *
         BC    08,ALOCAT40                                        0138
*         IF ALOFLAG='01'X THEN     /* IS ALLOCATION FOR NON-DEMOUNT- *
         CLI   ALOFLAG,X'01'                                      0139
*           GO TO ALOCAT30;         /* ABLES. YES, GO TO ROUTINE FOR  *
         BC    08,ALOCAT30                                        0140
*                                   /* NON-DEMOUNTABLE ALLOCATION.    *
*         IF ALOFLAG^='00'X THEN    /* IS REQUEST FOR FULL EXTENTS    *
         CLI   ALOFLAG,X'00'                                      0141
*           GO TO ALOCAT52;         /* DEMOUNTABLE ALLOCATION. NO,    *
         BC    07,ALOCAT52                                        0142
*                                   /* RETURN CODE 04.                *
*         /************************************************************
*         /*                                                          *
*         /*                 DEMOUNTABLE ALLOCATION                   *
*         /*                                                          *
*         /************************************************************
* ALOCAT21:
*         IF FPMODE='0'B THEN       /* IS FILE PROTECT MODE PRESENT.  *
ALOCAT21 TM    12(@3),B'00000010'                                 0143
*           GO TO ALOCAT50;         /* RETURN CODE 00 TO INDICATE ALL *
         BC    08,ALOCAT50                                        0144
*                                   /* OF VOLUME AVAILABLE AND NOT    *
*                                   /* FILE PROTECTED.                *
*         IF DEVSTAT='1'B THEN      /* IS VOLUME ON-LINE. YES, RETURN *
         TM    12(@3),B'10000000'                                 0145
*           GO TO ALOCAT58;         /* CODE 10 TO INDICATE SPACE NOT  *
         BC    01,ALOCAT58                                        0146
*                                   /* ALLOCATED AND VOLUME FILE      *
*                                   /* PROTECTED.                     *
* ALOCAT25:
*         IF FEATURES(3)='1'B THEN  /* IS DEVICE BEING SHARED.   21050*
ALOCAT25 TM    17(@8),B'00100000'                                 0147
         BC    12,@9EC                                            0147
*                                   /* YES,                      21050*
*           DO;                     /* FIND OUT IF IT IS OFF-LINE IN  *
*           RESPAREA=RESPAREA&&RESPAREA; /* OTHER SYSTEMS. CLEAR 21050*
         XC    RESPAREA(7),RESPAREA                               0149
*                                        /* THE ECB AND REPBUF.  21050*
*           R1=MSGPTR45;            /* GET POINTER TO MESSAGE IFD145D.*
         L     @1,4(0,@9)                                         0150
*           WTORPRF2=WTORLIST;      /* PUT NECESSARY INFORMATION IN   *
         MVC   0(8,@1),WTORLIST                                   0151
*                                   /* WTOR EXPANSION.                *
*           MSG45D(12:19)=EBCDICAD; /* PUT EBCDIC DEVICE ADDR IN 21050*
         MVC   23(8,@1),0(@3)                                     0152
*                                   /* MESSAGE.                       *
*           GEN(PWTOR REG=(1),WAIT=YES);
         PWTOR REG=(1),WAIT=YES
         DS    0H
*           IF REPBUF(1)='N' THEN   /* WAS DEV OFFLINE EVERYWHERE21050*
         CLI   RESPAREA+4,C'N'                                    0154
*             GO TO ALOCAT58;       /* NO, RETURN CODE 10.            *
         BC    08,ALOCAT58                                        0155
*           IF REPBUF(1)^='Y' THEN  /* WAS REPLY YES. NO, REPEAT21050*/
         CLI   RESPAREA+4,C'Y'                                    0156
*             GO TO ALOCAT25;       /* THE MESSAGE. YES, CONTINUE.    *
         BC    07,ALOCAT25                                        0157
*           END;
*         /************************************************************
*         /*         CAN DATA ON THIS DEVICE BE DESTROYED.            *
*         /************************************************************
* ALOCAT28:
*         RESPAREA=RESPAREA&&RESPAREA; /* CLEAR ECB AND REPBUF.  21050*
@9EC     EQU   *                                                  0159
ALOCAT28 XC    RESPAREA(7),RESPAREA                               0159
*         R1=MSGPTR20;              /* GET POINTER TO MESSAGE IFD120D.*
         L     @1,0(0,@9)                                         0160
*         WTORPRF1=WTORLIST;        /* PUT NECESSARY INFORMATION IN   *
         MVC   0(8,@1),WTORLIST                                   0161
*                                   /* WTOR EXPANSION.                *
*         MSG20D(25:32)=EBCDICAD;   /* PUT EBCDIC DEVICE ADDR IN 21050*
         MVC   36(8,@1),0(@3)                                     0162
*                                   /* MESSAGE.                       *
*         GEN(PWTOR REG=(1),WAIT=YES);
         PWTOR REG=(1),WAIT=YES
         DS    0H
*         IF REPBUF(1)='N' THEN     /* CAN DATA BE DESTROYED. NO,21050*
         CLI   RESPAREA+4,C'N'                                    0164
*           GO TO ALOCAT58;         /* RETURN CODE 10.                *
         BC    08,ALOCAT58                                        0165
*         IF REPBUF(1)^='Y' THEN    /* WAS REPLY YES. NO,REPEAT  21050*
         CLI   RESPAREA+4,C'Y'                                    0166
*           GO TO ALOCAT28;         /* MESSAGE. YES, CONTINUE.        *
         BC    07,ALOCAT28                                        0167
*         FPMODE='0'B;              /* TURN OFF FILE-PROTECT FLAG IN  *
         NI    12(@3),B'11111101'                                 0168
*                                   /* DEVTABLE ENTRY.                *
*         CDSFPM='0'B;              /* TURN OFF FPM FLAG IN CDS. 21050*
         NI    41(@3),B'01111111'                                 0169
*         IF PRIMARY='1'B THEN      /* IS ALLOCATION FOR PRIMARY      *
         TM    12(@3),B'01000000'                                 0170
         BC    12,@9EB                                            0170
*           DO;                     /* DEVICE. YES, TURN FILE PROTECT *
*           FILEPROT='0'B;          /* FLAGS OFF IN THE SCT.          *
         NI    SCT+10,B'10111111'                                 0172
*           FPMODCDS='0'B;
         NI    SCT+11,B'01111111'                                 0173
*           END;
*                                   /* FLAG OFF IN THE SCT.           *
*         GO TO ALOCAT50;           /* RETURN CODE 00 INDICATING ALL  *
         BC    15,ALOCAT50                                        0175
*                                   /* OF VOLUME AVAILABLE AND NOT    *
*                                   /* FILE PROTECTED.                *
* ALOCAT30:
*         /************************************************************
*         /*                                                          *
*         /*               NON-DEMOUNTABLE ALLOCATION                 *
*         /*                                                          *
*         /************************************************************
*         IF TYPE='08'X  ×          /* CAN ALLOCATE ON 2314 DEV X03008*
*            TYPE='09'X  ×          /* ON A 3330 DEVICE         X30008*
*            TYPE='0A'X  ×          /* ON A WINCHESTER DEV    XL030130*
*            TYPE='0D'X             /* ON AN ICEBERG DEVICE     X03008*
*             THEN                  /* NO, CANNOT ALLOCATE      X03008*
ALOCAT30 CLI   19(@8),X'08'                                       0176
         BC    08,@9EA                                            0176
         CLI   19(@8),X'09'                                       0176
         BC    08,@9E9                                            0176
         CLI   19(@8),X'0A'                                       0176
         BC    08,@9E8                                            0176
         CLI   19(@8),X'0D'                                       0176
         BC    07,@9E7                                            0176
*              GO TO ALOCAT52;      /* ON THIS DEVICE TYPE.     X03008*
         BC    08,ALOCAT52                                        0177
* ALOCAT32:
*         IF DEVSTAT='0'B THEN      /* IS DEVICE OFFLINE        YM7282*
@9E7     EQU   *                                                  0178
ALOCAT32 TM    12(@3),B'10000000'                                 0178
*           GO TO ALOCAT58;         /* YES, SPACE NOT ALLOCATED YM7282*
         BC    08,ALOCAT58                                        0179
*         IF FPMODE='0'B THEN       /* IS DEVICE FILE PROTECTED. NO,  *
         TM    12(@3),B'00000010'                                 0180
         BC    05,@9E6                                            0180
*           DO;                     /* HAS IT ALREADY BEEN ALLOCATED. *
*           IF ALLOCATE='0'B THEN   /* NO, RETURN CODE 00. YES, SET   *
         TM    12(@3),B'00001000'                                 0182
*             GO TO ALOCAT50;       /* BIT IN ALLOCATE FLAGS TO SAY   *
         BC    08,ALOCAT50                                        0183
*           REALOCAT='1'B;          /* RE-ALLOCATION IS NECESSARY.    *
         OI    ALOCATSW,B'10000000'                               0184
*           END;
*         /************************************************************
*         /*               BUILD DYN ALLOC TEXT UNITS           YM7282*
*         /************************************************************
*         IF ALOAMT=ZERO THEN       /* IS AMOUNT OF SPACE REQUIRED 0. *
@9E6     CLC   ALOAMT(3),FULL                                     0186
*           GO TO ALOCAT52;         /* YES, RETURN CODE 04. NO, BUILD *
         BC    08,ALOCAT52                                        0187
*                                   /* SVC 99 PARMLIST.         YM7282*
*         ALCU6PRM=ALOAMT;          /* PUT AMOUNT OF SPACE      YM7282*
         MVC   ALCTUNIT+81(3),ALOAMT                              0188
*                                   /* REQUESTED IN SVC 99 PLISTYM7282*
*         ALCU8PRM=EBCDICAD(6:8);   /* PLACE EBCDIC DEVICE ADDR YM7282*
         MVC   ALCTUNIT+97(3),5(@3)                               0189
*                                   /* IN SVC 99 PLIST          YM7282*
*         ALCU8PRM(3)=ALCU8PRM(3)&'F8'X; /* MAKE SURE EBCDIC    YM7282*
         NI    ALCTUNIT+99,X'F8'                                  0190
*                                   /* ADDR IS BASE ADDR        YM7282*
*         ALCTYPE(2)='07'X;         /* ASSUME TRK ALLOCATION    YM7282*
         MVI   ALCTUNIT+72,X'07'                                  0191
*         IF ALOFLGT^='88'X THEN    /* IS IT TRK REQUEST        YM7282*
         CLI   ALOFLGT,X'88'                                      0192
         BC    08,@9E5                                            0192
*           ALCTYPE(2)='08'X;       /* NO, INDICATE CYL ALLOC   YM7282*
         MVI   ALCTUNIT+72,X'08'                                  0193
*         ALCU9LNG(2)='08'X;        /* INSURE RETURN OF DDNAME  YM7282*
@9E5     MVI   ALCTUNIT+105,X'08'                                 0194
*         ALCU9PRM=ALCU9PRM&&ALCU9PRM; /* FROM SVC 99.          YM7282*
         XC    ALCTUNIT+106(8),ALCTUNIT+106                       0195
*         ALCU1PRM(8)='1';          /* DSNAME FOR THIS ALLOCATE YM7282*
         MVI   ALCTUNIT+13,C'1'                                   0196