         TITLE '   L P S C B     '
************************************************************
*                                                          *
*        'LPSCB'                                           *
*                                                          *
************************************************************
         SPACE
*        WRITTEN BY. BILL GODFREY,  PLANNING RESEARCH CORPORATION.
*        INSTALLATION. PRC COMPUTER CENTER INC, MCLEAN VA.
*        DATE WRITTEN. OCTOBER 19 1979.
*        DATE UPDATED.
*        ATTRIBUTES. RE-ENTRANT.
*        COMMENTS.
*            THIS TSO COMMAND LISTS THE PSCB ON THE TERMINAL.
         SPACE
         MACRO
&NAME    HEX   &TO,&LEN,&FROM
&NAME    LA    1,&FROM
         LA    0,&LEN
         LA    15,&TO
         BAL   14,HEX
         MEND
         SPACE
         MACRO
&NAME    MSG   &AREA,&LEN
         LA    1,&AREA
         LA    0,&LEN
         BAL   R14,PUTLINE
         MVC   LINE,LINE-1
         MEND
         SPACE
LPSCB    START
         USING *,R12
         B     @PROLOG-*(,15)
         DC    AL1(11),CL11'LPSCB '
         DC    CL16' &SYSDATE &SYSTIME '
@SIZE    DC    0F'0',AL1(1),AL3(@DATAL)
@PROLOG  STM   14,12,12(R13)       SAVE REGISTERS
         LR    R12,R15             LOAD BASE REGISTER
         LR    R2,R1               PARM POINTER
         USING CPPL,R2
         L     R0,@SIZE            WORKAREA SUBPOOL AND LENGTH
         GETMAIN R,LV=(0)
         LR    R9,R1               INITIALIZE WORKAREA POINTER
         USING @DATA,R9
         SPACE 1
         ST    R13,4(,R9)          CHAIN SAVEAREA
         ST    R9,8(,R13)          CHAIN SAVEAREA
         LR    R13,R9              UPDATE SAVEAREA POINTER
         SPACE
         MVI   LINE-1,C' '
         XC    LINKAREA(8),LINKAREA
         SPACE
************************************************************
*                                                          *
*        SET UP IOPL FOR PUTLINE                           *
*                                                          *
************************************************************
         SPACE
         LA    R15,MYIOPL
         USING IOPL,R15
         MVC   IOPLUPT(4),CPPLUPT
         MVC   IOPLECT(4),CPPLECT
         LA    R0,MYECB
         ST    R0,IOPLECB
         XC    MYECB,MYECB
         LA    R0,MYPTPB
         ST    R0,IOPLIOPB
         DROP  R15
         SPACE
         L     R15,16              LOAD CVT POINTER
         TM    444(R15),X'80'      IS PUTLINE LOADED? (VS2)
         BNO   PUTLOAD             NO - BRANCH TO LOAD
         L     R15,444(,R15)       YES - USE CVTPUTL
         B     PUTLOADX            BRANCH AROUND LOAD
PUTLOAD  LA    R0,=CL8'IKJPUTL '
         LOAD  EPLOC=(0)
         LR    R15,R0              GET ENTRY ADDRESS
         LA    R15,0(,R15)         CLEAR HI BYTE FOR DELETE ROUTINE
PUTLOADX ST    R15,MYPUTLEP        SAVE PUTLINE ENTRY ADDRESS
         SPACE
         SPACE 1
************************************************************
*                                                          *
*        SET UP PPL FOR PARSE                              *
*                                                          *
************************************************************
         SPACE
         LA    R15,MYPPL
         USING PPL,R15
         MVC   PPLUPT(4),CPPLUPT
         MVC   PPLECT(4),CPPLECT
         LA    R0,MYECB
         ST    R0,PPLECB
         XC    MYECB,MYECB
         L     R0,=A(MYPCL)
         ST    R0,PPLPCL
         LA    R0,MYANS
         ST    R0,PPLANS
         MVC   PPLCBUF(4),CPPLCBUF
         ST    R13,PPLUWA
         DROP  R15
         SPACE 1
************************************************************
*                                                          *
*        CALL THE PARSE SERVICE ROUTINE                    *
*                                                          *
************************************************************
         SPACE 1
         LR    R1,R15              POINT TO PPL
         L     R15,16              CVTPTR
         TM    524(R15),X'80'      IF HI ORDER BIT NOT ON
         BNO   PARSELNK               THEN DO LINK, NOT CALL
         L     R15,524(,R15)       CVTPARS
         BALR  R14,R15             CALL IKJPARS
         B     PARSEEXT            SKIP AROUND LINK
PARSELNK EQU   *
         LINK  EP=IKJPARS,SF=(E,LINKAREA)
PARSEEXT EQU   *
         SPACE 1
         LTR   R15,R15
         BNZ   EXIT12
         L     R3,MYANS
         USING IKJPARMD,R3
         L     R4,CPPLPSCB
         CLI   REALKW+1,2          'REAL' SPECIFIED
         BNE   GOTPSCB             NO, BRANCH
         L     R1,16               YES, FIND PSCB VIA JSCB
         L     R1,0(,R1)           TCB WORDS
         L     R1,4(,R1)           CURRENT TCB
         L     R1,180(,R1)         TCBJSCB
         L     R1,264(,R1)         JSCBPSCB
         LTR   R4,R1               IS THERE A PSCB
         BZ    EXIT12              NO, BRANCH
GOTPSCB  EQU   *
         USING PSCB,R4
         MVC   LINE,LINE-1
         ST    R4,ADDRESS
         HEX   LINE,3,ADDRESS+1
         MVC   LINE+7(L'MSG01),MSG01
         MSG   LINE,L'MSG01+7
         MVC   LINETXT,TEXTUSER
         HEX   LINEX,7,PSCBUSER
         MVC   LINEC(7),PSCBUSER
         BAL   R8,MSG
         SPACE
         MVC   LINETXT,TEXTUSRL
         HEX   LINEX,1,PSCBUSRL
         BAL   R8,MSG
         SPACE
         MVC   LINETXT,TEXTGPNM
         HEX   LINEX,8,PSCBGPNM
         CLI   PSCBGPNM,0
         BE    *+10
         MVC   LINEC(8),PSCBGPNM
         BAL   R8,MSG
         SPACE
         MVC   LINETXT,TEXTATR1
         HEX   LINEX,2,PSCBATR1
         LA    R15,LINEC
         LA    R1,PSCBATR1
         TM    0(R1),PSCBCTRL
         BZ    *+14
         MVC   0(4,R15),=C'OPER'
         LA    R15,5(,R15)
         TM    0(R1),PSCBACCT
         BZ    *+14
         MVC   0(4,R15),=C'ACCT'
         LA    R15,5(,R15)
         TM    0(R1),PSCBJCL
         BZ    *+14
         MVC   0(3,R15),=C'JCL'
         LA    R15,4(,R15)
         TM    0(R1),X'10'
         BZ    *+14
         MVC   0(5,R15),=C'MOUNT'
         LA    R15,6(,R15)
         LA    R15,1(,R15)
         TM    0(R1),X'08'
         BZ    *+14
         MVC   0(10,R15),=C'LINE(ATTN)'
         LA    R15,11(,R15)
         TM    0(R1),X'04'
         BZ    *+14
         MVC   0(7,R15),=C'RECOVER'
         LA    R15,8(,R15)
         BAL   R8,MSG
         SPACE
         MVC   LINETXT,TEXTATR2
         HEX   LINEX,2,PSCBATR2
         BAL   R8,MSG
         SPACE
         MVC   LINETXT,TEXTLTIM
         HEX   LINEX,8,PSCBLTIM
         BAL   R8,MSG
         SPACE
         MVC   LINETXT,TEXTSUB
         HEX   LINEX,4,PSCB+X'1C'
         BAL   R8,MSG
         SPACE
         MVC   LINETXT,TEXTRESV
         HEX   LINEX,8,PSCB+X'20'
         BAL   R8,MSG
         SPACE
         MVC   LINETXT,TEXTDEST
         HEX   LINEX,8,PSCBDEST
         CLI   PSCBDEST,0
         BE    *+10
         MVC   LINEC(8),PSCBDEST
         BAL   R8,MSG
         SPACE
         MVC   LINETXT,TEXTRLGB
         HEX   LINEX,4,PSCBRLGB
         BAL   R8,MSG
         SPACE
         MVC   LINETXT,TEXTUPT
         HEX   LINEX,4,PSCBUPT
         BAL   R8,MSG
         SPACE
         MVC   LINETXT,TEXTUPTL
         HEX   LINEX,2,PSCBUPTL
         BAL   R8,MSG
         SPACE
         MVC   LINETXT,TEXTCHAR
         HEX   LINEX,1,PSCBCHAR
         BAL   R8,MSG
         SPACE
         MVC   LINETXT,TEXTLINE
         HEX   LINEX,1,PSCBLINE
         BAL   R8,MSG
         SPACE
         MVC   LINETXT,TEXTRSZ
         HEX   LINEX,4,PSCBRSZ
         BAL   R8,MSG
         SPACE
         MVC   LINETXT,TEXTU
         HEX   LINEX,8,PSCBU
         BAL   R8,MSG
         SPACE
         CLI   UPTKW+1,1           'UPT' SPECIFIED
         BNE   NOUPT               NO, BRANCH
         MVC   LINE(3),=C'UPT'
         BAL   R8,MSG
         L     R5,PSCBUPT
         USING UPT,R5
         MVC   LINETXT,TEXTPUP1
         HEX   LINEX,2,UPT
         BAL   R8,MSG
         SPACE
         MVC   LINETXT,TEXTPUP2
         HEX   LINEX,10,UPTUSER
         BAL   R8,MSG
         SPACE
         MVC   LINETXT,TEXTPUP3
         HEX   LINEX,1,UPTSWS
         BAL   R8,MSG
         SPACE
         MVC   LINETXT,TEXTPUP4
         HEX   LINEX,1,UPTCDEL
         BAL   R8,MSG
         SPACE
         MVC   LINETXT,TEXTPUP5
         HEX   LINEX,1,UPTLDEL
         BAL   R8,MSG
NOUPT    B     EXIT0
         SPACE
HEX      MVC   1(1,R15),0(R1)      MOVE BYTE
         UNPK  0(3,R15),1(2,R15)   UNPACK
         TR    0(2,R15),HEXTAB-240
         LA    R15,2(,R15)         INCREMENT OUTPUT PTR
         LA    R1,1(,R1)           INCREMENT INPUT PTR
         BCT   R0,HEX              DECREMENT LENGTH, THEN LOOP
         MVI   0(R15),C' '         BLANK THE TRAILING BYTE
         BR    R14                 RETURN TO CALLER
HEXTAB   DC    C'0123456789ABCDEF' TRANSLATE TABLE
         SPACE
MSG      LA    R1,LINE
         LA    R0,72
         BAL   R14,PUTLINE
         MVC   LINE,LINE-1
         BR    R8
         SPACE
************************************************************
*                                                          *
*        PUTMSG ROUTINE                                    *
*                                                          *
************************************************************
         SPACE
PUTMSG   STM   R14,R1,PUTSAVE
         XC    MYOLD(8),MYOLD
         XC    MYSEG1(4),MYSEG1
         MVC   MYPTPB(12),MODLPTPM
         LA    R14,1               NO. OF MESSAGE SEGMENTS
         ST    R14,MYOLD
         LA    R14,MYSEG1          POINT TO 1ST SEGMENT
         ST    R14,MYOLD+4
         LR    R14,R0              LENGTH IN R0
         LA    R14,4(,R14)         ADD 4
         LA    R15,MYSEG1+4
         CLC   0(3,R1),=C'IKJ'     IS DATA PRECEEDED BY MESSAGE ID?
         BE    *+16                YES - BRANCH
         LA    R14,1(,R14)         ADD 1 TO LENGTH
         MVI   0(R15),C' '         INSERT LEADING BLANK
         LA    R15,1(,R15)         BUMP POINTER
         STH   R14,MYSEG1
         LR    R14,R0
         BCTR  R14,0
         B     *+10
         MVC   0(0,R15),0(R1)      MOVE MESSAGE IN
         EX    R14,*-6
         LA    R1,MYIOPL
         L     R15,MYPUTLEP
         SPACE
         PUTLINE PARM=MYPTPB,OUTPUT=(MYOLD),ENTRY=(15),MF=(E,(1))
         SPACE
         LM    R14,R1,PUTSAVE
         BR    R14
         SPACE
************************************************************
*                                                          *
*        PUTLINE ROUTINE                                   *
*                                                          *
************************************************************
         SPACE
PUTLINE  STM   R14,R1,PUTSAVE
         XC    MYSEG1(4),MYSEG1
         MVC   MYPTPB(12),MODLPTPB
         LR    R14,R0              LENGTH IN R0
         LA    R14,4(,R14)         ADD 4
         STH   R14,MYSEG1
         LR    R14,R0
         BCTR  R14,0
         B     *+10
         MVC   MYSEG1+4(0),0(R1)   MOVE TEXT IN
         EX    R14,*-6
         LA    R1,MYIOPL
         L     R15,MYPUTLEP
         SPACE
         PUTLINE PARM=MYPTPB,OUTPUT=(MYSEG1,DATA),ENTRY=(15),MF=(E,(1))
         SPACE
         LM    R14,R1,PUTSAVE
         BR    R14
         SPACE 1
EXIT0    SR    R15,R15             RETURN CODE ZERO
         B     EXIT
EXIT12   LA    R15,12              RETURN CODE 12
EXIT     LR    R2,R15              SAVE RETURN CODE
EXITX    LR    R15,R2              RESTORE RETURN CODE
         LR    R1,R13              POINT R1 TO AREA TO BE FREED
         L     R0,@SIZE            SUBPOOL AND LENGTH
         L     R13,4(,R13)         RESTORE PREVIOUS SAVEAREA
         ST    R15,16(,R13)        STORE RETURN CODE FOR LM
         FREEMAIN R,A=(1),LV=(0)
         LM    14,12,12(R13)       LOAD RETURN ADDRESS AND RC
         BR    14                  RETURN
         SPACE
************************************************************
*                                                          *
*        CONSTANTS                                         *
*                                                          *
************************************************************
         SPACE
         LTORG
         SPACE
MODLPTPM PUTLINE OUTPUT=(1,TERM,SINGLE,INFOR),                         X
               TERMPUT=(EDIT,WAIT,NOHOLD,NOBREAK),MF=L
         SPACE
MODLPTPB PUTLINE OUTPUT=(1,TERM,SINGLE,DATA),                          X
               TERMPUT=(EDIT,WAIT,NOHOLD,NOBREAK),MF=L
         SPACE
MSG01    DC    C'PSCB ADDRESS'
TEXTUSER DC    C'    +0  PSCBUSER'
TEXTUSRL DC    C'    +7  PSCBUSRL'
TEXTGPNM DC    C'    +8  PSCBGPNM'
TEXTATR1 DC    C'   +10  PSCBATR1'
TEXTATR2 DC    C'   +12  PSCBATR2'
TEXTLTIM DC    C'   +14  PSCBLTIM'
TEXTSUB  DC    C'   +1C  PSCBSUB '
TEXTRESV DC    C'   +20  RESERVED'
TEXTDEST DC    C'   +28  PSCBDEST'
TEXTRLGB DC    C'   +30  PSCBRLGB'
TEXTUPT  DC    C'   +34  PSCBUPT '
TEXTUPTL DC    C'   +38  PSCBUPTL'
TEXTCHAR DC    C'   +3A  PSCBCHAR'
TEXTLINE DC    C'   +3B  PSCBLINE'
TEXTRSZ  DC    C'   +3C  PSCBRSZ '
TEXTU    DC    C'   +40  PSCBU   '
TEXTPUP1 DC    C'    +0  RESERVED'
TEXTPUP2 DC    C'    +2  UPTUSER '
TEXTPUP3 DC    C'    +C  UPTSWS  '
TEXTPUP4 DC    C'    +D  UPTCDEL '
TEXTPUP5 DC    C'    +D  UPTLDEL '
         SPACE
************************************************************
*                                                          *
*        PARSE PCL                                         *
*                                                          *
************************************************************
         SPACE
         PRINT NOGEN
MYPCL    IKJPARM
REALKW   IKJKEYWD
         IKJNAME 'CPPL'
         IKJNAME 'REAL'
UPTKW    IKJKEYWD
         IKJNAME 'UPT'
         IKJENDP
         PRINT GEN
         SPACE
************************************************************
*                                                          *
*        DSECTS                                            *
*                                                          *
************************************************************
         SPACE
@DATA    DSECT
         DS    18F                 REGISTER SAVEAREA
DOUBLE   DS    D                   DOUBLEWORD WORK AREA
LINKAREA DS    2F
ADDRESS  DS    F
MYPPL    DS    7F
MYANS    DS    F
MYECB    DS    F                   USED BY PUTLINE ROUTINE
MYIOPL   DS    4F                  USED BY PUTLINE ROUTINE
MYPTPB   DS    3F                  USED BY PUTLINE ROUTINE
MYPUTLEP DS    F                   USED BY PUTLINE ROUTINE
MYOLD    DS    2F                  USED BY PUTLINE ROUTINE
MYSEG1   DS    2H,CL100            USED BY PUTLINE ROUTINE
PUTSAVE  DS    4F                  USED BY PUTLINE ROUTINE
LINEB    DS    C                   LINE-1
LINE     DS    CL120
LINETXT  EQU   LINE,16
LINEX    EQU   LINE+17
LINEC    EQU   LINE+34
@DATAL   EQU   *-@DATA
         SPACE
         IKJCPPL
         SPACE
         IKJIOPL
         SPACE
         IKJPPL
         SPACE
         IKJPSCB
         SPACE
         IKJUPT
         SPACE
R0       EQU   0
R1       EQU   1
R2       EQU   2
R3       EQU   3
R4       EQU   4
R5       EQU   5
R6       EQU   6
R7       EQU   7
R8       EQU   8
R9       EQU   9
R10      EQU   10
R11      EQU   11
R12      EQU   12
R13      EQU   13
R14      EQU   14
R15      EQU   15
         END
