         MACRO
&NAME    IDARST14
&NAME    LH    R14,PLHRETO(,RPLH)      GET CURRENT OFFSET
         SH    R14,HWORD4              BACK UP 1 WORD
         STH   R14,PLHRETO(,RPLH)      STORE NEW OFFSET
         L     R14,PLHRET1(R14,RPLH)   RESTORE R14
         MEND
