         MACRO
&NAME    IDASVR14
&NAME    LH    R15,PLHRETO(,RPLH)      GET CURRENT OFFSET
         ST    R14,PLHRET1(R15,RPLH)   STORE R14
         LA    R15,4(,R15)             ADVANCE OFFSET
         STH   R15,PLHRETO(,RPLH)      STORE NEW OFFSET
         MEND
