         MACRO
&NAME    IGGBISAV
&NAME    DSECT
*    02/20/73          LEVEL=00
**********************************************************************
*    SAVE AREA FOR BISAM ASYNCHRONOUS AND PRIVILEGED ROUTINES.       *
**********************************************************************
IGGRETRN DS    A                        RETURN ADDRESS
IGGPDEB  DS    A                        VALIDATED DEB ADDRESS
IGGUKEY  DS    X                        USER STORAGE PROTECT KEY
IGGRESRV DS    XL3                      RESERVED
IGGREGS  DS    16F                      PROTECTED REGISTER SAVE AREA
IGGSIZE  EQU   *-IGGRETRN               SIZE OF PROTECTED SAVE AREA
         MEND
