         MACRO
&NAME    IGGDCBFA
&NAME    DSECT
*    03/20/73          LEVEL=01
*****************************************************************
*    ISAM DCB FIELD AREA - CONTROL BLOCK FOR SHARED DATA SETS   *
*****************************************************************
DFARORG3 DS    F                        NO. ACCESSES TO OVRFLOW RCDS
*                                       OTHER THAN FIRST RCD IN CHAIN
DFANREC  DS    F                        NO. RCDS IN PRIME AREA
DFAST    DS    BL1                      DCB STATUS INDICATORS
*                                       B0 SINGLE SCHEDULE MODE
*                                       B1 KEY SEQ. TO BE CHECKED
*                                       B2 INITIAL LOAD COMPLETED
*                                       B3 RESUME LOAD ON NEW CYL
*                                       B4 RESERVED
*                                       B5 FIRST MACRO NOT RCVD
*                                       B6 LAST BLOCK FULL
*                                       B7 LAST TRACK FULL
DFARESER DS    XL1                      RESERVED
DFAUSE   DS    H                        NO. DCBS OPENED ON DATA SET,
*                                       TOTAL OF ASID USE COUNTS
DFANBOV  DS    H                        VLR, NO. BYTES LEFT ON
*                                       CURRENT OVRFLOW TRACK
DFANOREC DS    H                        NO. RCDS IN OVERFLOW AREA
DFALIOV  DS    XL8                      ADDR LAST IND OVRFLOW RCD
DFARORG1 DS    H                        NO. FULL CYL OVRFLOW AREAS
DFARORG2 DS    H                        NO. OF TRKS REMAINING IN
*                                       IND. OVERFLOW AREAS
DFALPDA  DS    XL8                      LAST PRIME DATA RCD ADDR
DFAID    DS    XL8                      IDENTIFIER FOR DATA SET
DFACHAIN DS    A                        ADDR OF NEXT FA IN CHAIN
DFAASID1 DS    H                        ASID OF USER
DFAUSE1  DS    H                        USE COUNT FOR AISD1
DFAASID2 DS    H                        ASID OF USER
DFAUSE2  DS    H                        USE COUNT FOR AISD2
DFAASID3 DS    H                        ASID OF USER
DFAUSE3  DS    H                        USE COUNT FOR ASID3
DFAASID4 DS    H                        ASID OF USER
DFAUSE4  DS    H                        USE COUNT FOR AISD4
DFAASIDN DS    A                        ADDR OF NEXT FAEX IN CHAIN
DFASIZE  EQU   *-DFARORG3               SIZE OF FILED AREA
         SPACE 4
DCBFAEX  DSECT
*****************************************************************
*    DCB FIELD AREA EXTENSION - CONTAINS USE COUNTS FOR FOUR     *
*    ADDRESS SPACES AND A POINTER TO NEXT FIELD AREA EXTENSION    *
*******************************************************************
DFAXSID1 DS    H                        ASID OF USER
DFAUSE1X DS    H                        USE COUNT FOR XSID1
DFAXSID2 DS    H                        ASID OF USER
DFAUSE2X DS    H                        USE COUNT FOR XSID2
DFAXSID3 DS    H                        ASID OF USER
DFAUSE3X DS    H                        USE COUNT FOR XSID3
DFAXSID4 DS    H                        ASID OF USER
DFAUSE4X DS    H                        USE COUNT FOR XSID4
DFAEXN   DS    A                        ADDR OF NEXT FAEX ON CHAIN
DFEXSIZE EQU   *-DCBFAEX                SIZE OF EXTENSION
         SPACE 4
DFAASID  DSECT
DFANXPTR EQU   4                        OFFSET TO NEXT ASID FIELD
DFANOIDS EQU   4                        NO. OF ASID'S AND USE COUNTS
*                                       IN DCBFA AND EXTENSIONS
DFAINCR  EQU   1                        INCREMENT USE COUNTS
         SPACE
*******************************************************************
*    DSECT FOR SEARCHING FOR ADDRESS SPACE ID                     *
*******************************************************************
         SPACE
DFAASIDX DS    H                        ADDRESS SPACE ID
DFAUSEX  DS    H                        ASID USE COUNT
DFAPTR   DS    A                        ADDR OF DCBFA EXTENSION
         MEND
