         MACRO
&NAME    IGGIOBD
.*          RELEASE 22 DELETIONS/CHANGES
.*          RELEASE 21 DELETIONS/CHANGES
.*          RELEASE 20 DELETIONS/CHANGES
*    02/06/73          LEVEL=01
&NAME    DSECT
         DS    0F             STANDARD IOB
IOBFLAG1 DS    CL1
IOBFLAG2 DS    CL1
IOBSENSE DS    0XL2
IOBSENS0 DS    XL1                      SENSE BYTE 0
IOBSENS1 DS    XL1                      SENSE BYTE 1
IOBECBAD DS    A
IOBCSW   DS    CL8
IOBSIOCC DS    CL1
IOBSTART DS    AL3
IOBWGHT  DS    CL1
IOBDCBAD  DS    AL3
IOBRESTA DS    A
IOBBCTIN DS    CL2
IOBERRCT DS    CL2
IOBDADAD DS    CL8
*                             BISAM IOB EXTENSION
IOBCCWAD DS    A                        ADDRESS FIRST CHAN PROGRAM
IOBINDCT DS    CL1                      INDICATORS B0 REMOVE CP FROM Q
*                                                  B1 UNSCHEDULED BIT
*                                                  B2 OVFLO RCD IN W
IOBUNSQR DS    CL1                      UNSCHED REASON B0 CP1 OR 2 BUSY
*                                                        B1 NO CP4-5-6
*                                                      B3 WKN IN EFFECT
IOBAPP   DS    CL1                      APPENDAGE CODE 0 READ CP4-5
*                                                      1 WRITE CP4-5
*                                                      2 CP7
*                                                      3 CP1 OR CP2
*                                                      5 CP6
*                                                      6 WRITE CHECK
*                                                 WKN  7 CP1 OR CP2
*                                                      8 CP8
*                                                      9 CP10A
*                                                     10 CP10B
*                                                     11 CP10B
*                                                     12 CP14
*                                                     13 CP14
*                                                     14 CP15
*                                                     15 CP16
*                                                     16 CP16
*                                                     17 CP17
*                                                     18 CP17
*                                                     19 CP17
*                                                     20 CP9/12/11/13A
*                                                     21 CP9/12/11/13B
*                                                     22 CP9C/CP/23W
*                                                     23 CP10A
*                                                     24 X/CP12C/X/13C
IOBASYN  DS    CL1                      ASYNCHRONOUS   0 END CP456 OK
*                                                      1 DO AN EXCP
*                                                      2 END CP7 OK
*                                                      3 END CP1-2 OK
*                                                      4 END CP456 ERR
*                                                      6 END CP7 ERR
*                                                      7 END CP1-2 ERR
*                                                 WKN  8 COMPLETION
*                                                      9 CP14, SETUP 1
*                                                     10 CP14, SETUP 2
*                                                     11 CP14, SETUP 3
*                                                     12 CP14, SETUP 4
*                                                     13 CP14, SETUP 5
*                                                     14 CP14, SETUP 6
IOBCOUNT DS    0CL1                     WRITE CHECK ERROR COUNTER
IOBFCHAD DS    A                        FORWARD CHAIN ADDRESS
IOBBCHAD DS    A                        BACKWARD CHAIN ADDRESS
IOBCCW1  DS    D                        SETSECTOR FOR RPS
IOBCCW2  DS    D                        TIC TO CHANNEL PGM
IOBSECT  EQU   IOBCCW2+4                TEMP STORAGE FOR SECTOR VALUES
         ORG   IOBCCWAD
*                             QISAM IOB EXTENSION
         DS    C              W1EXTEN   APPENDAGE CODE
         DS    C              W1OEXTEN  APPENDAGE CODE
         MEND
