         MACRO
&NAME    IKJEBEMB &L2,&TEXT
         LCLC  &GNAME,&MNAME,&ID,&INAME,&JNAME
&GNAME   SETC  'MSG'.'&SYSNDX'
&ID      SETC  '''IKJ52'''
          AIF ('&TEXT'(2,1) NE ' ').TAG6  CHECK FOR MSG 0
          AIF (N'&L2 EQ 0).TAG9  BRANCH IF NO LEVEL 2
&MNAME    SETC   '000'
          AGO   .TAG7
.TAG9      ANOP
          DS    0F
          AGO   .TAG10
.TAG6      ANOP
&MNAME   SETC  '&TEXT'(2,3)
.TAG7    ANOP
&INAME   SETC  'M'.'&MNAME'
&JNAME   SETC  '&INAME'.'&SYSNDX'
&JNAME   DS    0F
.TAG10   ANOP
         AIF   (N'&L2 EQ 0).TAG1
&NAME    DC    A(&L2) PTR TO LEVEL 2 MESSAGE
         AGO   .TAG3
.TAG1    ANOP
&NAME    DC    A(0) NO SECOND LEVEL MESSAGES
.TAG3    ANOP
         DC    AL2(&GNAME-*) LENGTH OF RECORD
         DC    AL2(0) ALWAYS 0
         AIF ('&TEXT'(2,1) EQ ' ').TAG8
         DC    C&ID MESSAGE ID
.TAG8    ANOP
         DC    C&TEXT MESSAGE TEXT
&GNAME   EQU   *
         SPACE 2
         MEND
