         MACRO
&NAME    BLDL  &DCB,&LIST,&DUMMY=
.* SEE CODE FLAGGED SA69847 FOR APARS XA04159 AND YA03669.
         AIF   ('&DCB' EQ '').E1
         AIF   ('&LIST' EQ '').E2
&NAME    IHBINNRA &DCB,&LIST                LOAD REG 1 AND REG 0
         LA    1,0(1)
.* REGISTER 1 IS MADE POSITIVE SO THE SVC CODE WILL KNOW THIS   SA69847
.* REQUEST IS FROM BLDL AND NOT THE FIND MACRO.                 SA69847
         SVC   18                                LINK TO BLDL ROUTINE
         MEXIT
.E1      IHBERMAC 6                     DCB ADDR MISSING
         AIF   ('&LIST' EQ '').E2
         MEXIT
.E2      IHBERMAC 34                    LIST ADDR MISSING
         MEND
