         MACRO
&NAME    BREAKOFF &COUNT
&NAME    L     15,=V(IECKBRKF)         ENTRY POINT BREAKOFF ROUTINE
         BALR  14,15                   TO BREAKOFF ROUTINE
         AIF   ('&COUNT' EQ '').ZERO
         DC    AL2(&COUNT)
         AGO   .END
.ZERO    DC    AL2(0)
.END     SPACE
         MEND
