         MACRO
&NAME    CANCELM &PAR1
         AIF   ('&PAR1' NE '').TST2    GO IF PARAMETER PRESENT
         MNOTE 12,'***  IHB004  REQUIRED OPERAND(S) NOT SPECIFIED'
         AGO   .BAD
.TST2    AIF   (K'&PAR1 NE 7).TST3
         AIF   ('&PAR1'(1,2) EQ 'X''' AND '&PAR1'(7,1) EQ '''').OK
.TST3    AIF   (K'&PAR1 NE 9).ER
         AIF   ('&PAR1'(1,4) EQ 'XL2''' AND '&PAR1'(9,1) EQ '''').OK
.ER      MNOTE 12,'***  IHB002  INVALID ERROR OPERAND SPECIFIED'
.BAD     MEXIT
.OK      ANOP
&NAME    L     15,=V(IECKCNCL)         ADDRESS OF CANCELM ROUTINE
         BALR  14,15                   TO THE CANCELM ROUTINE
         DC    &PAR1          ERROR MASK
         MEND
