         MACRO
&NAME    CHECK &DECB,&DSORG=
         AIF   ('&DECB' EQ '').E1
         AIF   ('&DSORG'EQ'').A1
         AIF   ('&DSORG'EQ'IS').A2
         AIF   ('&DSORG'EQ'ALL').A3
         IHBERMAC 180,DSORG,ALL        DSORG OPERAND INVALID-SET TO ALL
         AGO   .A3
.A1      ANOP
&NAME    IHBINNRA &DECB
         L     14,8(0,1)                         PICK UP DCB ADDRESS
         L     15,52(0,14)                       LOAD CHECK ROUT. ADDR.
         BALR  14,15                             LINK TO CHECK ROUTINE
         MEXIT
.A2      ANOP
&NAME    IHBINNRA &DECB
         L     14,8(0,1)        PICK UP DCB ADDRESS
         L     15,76(0,14)        LOAD  CHECK RTN-ADDR FOR ISAM
         BALR  14,15                 LINK TO CHECK ROUT ADDRESS
         MEXIT
.A3      ANOP
&NAME    IHBINNRA &DECB
         L     14,8(0,1)        PICK UP DCB ADDRESS
         L     15,76(0,14)        LOAD  CHECK RTN-ADDR FOR ISAM
         TM    26(14),X'80'         CHECK  ISAM
         BO    *+8
         L     15,52(0,14)                       LOAD CHECK ROUT.
         BALR  14,15                 LINK TO CHECK ROUT ADDRESS
         MEXIT
.E1      IHBERMAC 7                     DECB OPERAND MISSING
         MEND
