         MACRO
&NAME    CHNGT &TERM,&WKA
         GBLB  &IEDQE7
.* 090000,140000,248000-272000                                    20002
&NAME    DS    0H
         AIF   (&IEDQE7 EQ 1).TCAM                                20002
         AIF   ('&TERM' NE '' AND '&WKA' NE '').GO
         MNOTE 12,'***  IHB004  REQUIRED OPERAND(S) NOT SPECIFIED'
         MEXIT
.TCAM    ANOP
         MNOTE 0,'*** IHB301 QSTART SPECIFIED - NO EXPANSION'
         CNOP  2,4 .                                              20002
         MEXIT
.GO      AIF   ('&WKA'(1,1) EQ '(').REG2
         LA    0,&WKA              LOAD WORKAREA ADDRESS
         AGO   .GO2
.REG2    AIF   ('&WKA'(1,3) EQ '(0)').GO2
         LR    0,&WKA(1)           LOAD ADDRESS OF WORKAREA
.GO2     AIF   ('&TERM'(1,1) EQ '(').REG1
         BAL   1,*+12
         DC    CL8'&TERM'
         AGO   .OK
.REG1    AIF   ('&TERM' EQ '(1)').OK
         LR    1,&TERM(1)          LOAD ADDRESS OF TERMNAME
.OK      L     15,=V(IECKCHGT)     LOAD SUBROUTINE ADDRESS
         BALR  14,15               LINK
.END     MEND
