         MACRO
&NAME    CKREQ
         GBLB  &IEDQE7
.* 200000-220000,810000-840000                                    20002
         AIF   (&IEDQE7 EQ 1).TCAM                                20002
         CNOP  0,4
&NAME    BAL   1,*+16             SET ADDRESS OF PARAMETER LIST
         DC    A(0)
         DC    X'EC'
         DC    AL3(0)
         DC    A(0)
         L     15,=V(IECKCKRQ)    ADDRESS OF THE CKREQ ROUTINE
         BALR  14,15              LINK TO THE CKREQ ROUTINE
         MEXIT
.TCAM    ANOP
&NAME    DS    0H .                                               20002
         LINK  EP=IEDQNB .              CKPT INTERFACE ROUTINE    20002
         MEND
