         MACRO
&NAME    CLOSEMC
         GBLB  &IEDQE7
.* 220000,260000,404000-488000                                    20002
         AIF   (&IEDQE7 EQ 1).TCAM                                20002
&NAME    L     15,=V(IECKCLOS)         CLOSEOUT ROUTINE ADDRESS
         BALR  14,15                   BRANCH TO THE CLOSEOUT ROUTINE
         MEXIT
.TCAM    ANOP
&NAME    DS    0H .                                               20002
         SR    0,0 .                    INDICATE NO PASSWORD      20002
         MVI   IEDQ&SYSNDX+11,X'FF' .   FLAG AS CQTAM MACRO       20002
         CNOP  0,4 .                                              20002
         BAL   1,*+44 .                 SET CIB ADDR IN PARM REG  20002
IEDQ&SYSNDX DS 0F .                     COMMAND INPUT BUFFER      20002
         DC    F'0' .                   OPERATOR CONTROL QCB ADDR 20002
         DC    XL1'E0' .                CIB QUEUING PRIORITY      20002
         DC    XL3'00' .                LINK FIELD                20002
         DC    XL1'11' .                VERB CODE FOR FLUSH CLOSE 20002
         DC    XL1'1C' .                CIB LENGTH                20002
         DC    XL1'00' .                RELATIVE LINE NUMBER      20002
         DC    XL1'FF' .                COMPLETION CODE(CQTAM)    20002
         DC    A(IEDQ&SYSNDX+32) .      ECB ADDRESS               20002
         DC    XL8'00' .                TERMINAL NAME             20002
         DC    XL4'00' .                WORKAREA ADDRESS          20002
         DC    A(IEDQ&SYSNDX) .         ADDRESS OF CIB            20002
         DC    F'0' .                   PCB WORKAREA/ECB          20002
         DC    F'0' .                   ADDRESS OF CIB LENGTH     20002
         LINK  EP=IEDQET .                                        20002
         MEND
