         MACRO
&NAME    CNTRL &DCB,&CODE,&NO
         LCLB  &B(11)
         LCLA  &CTR
         LCLB  &D2,&D3
         AIF   ('&DCB' EQ '').E1
         AIF   ('&CODE' EQ 'LT').CMR1A
&NAME    IHBINNRA &DCB                      LOAD DCB ADDR IN REG 1
         AIF   ('&CODE' EQ 'DIS').AROUND
.CHKNO   AIF   ('&CODE' EQ '').E2
         AIF   (K'&CODE EQ 3).CONTON
         AIF   (K'&CODE LT 2).E4
         AIF   ('&CODE'(1,1) NE 'S').CONTON
         AIF   ('&NO' EQ '').E3
         AIF   (T'&NO NE 'N').E5
&CTR     SETA  &NO
         AIF   ('&CODE'(2,1) EQ 'S' AND &CTR GT 2 OR '&CODE'(2,1) EQ 'P'
               '  AND &CTR GT 3 OR '&CODE'(2,1) EQ 'K' AND &CTR GT 12 OR
               R &CTR LT 1).E5
         AIF   ('&NO' EQ '&NO(1)').CONTA
         IHBINNRA ,&NO                      LOAD  NO IN REG 0
         AGO   .CHKCODE
.CONTA   IHBINNRA ,&NO.(0,0)
.CHKCODE AIF   ('&CODE' EQ 'SP' OR '&CODE' EQ 'SS').OUT
         AIF   ('&CODE' NE 'SK').E4
         LCR   0,0                               INDICATE SK ACTION
         AGO   .OUT
.CONTON  AIF   ('&CODE' EQ 'BSR' OR '&CODE' EQ 'FSR').CONTX
         AIF   ('&CODE' NE 'BSM' AND '&CODE' NE 'FSM').CZCODE
         AIF   ('&NO' NE '').E5
         AGO   .AROUND
.CONTX   AIF   ('&NO' EQ '').USEONE
         AIF   ('&NO'(1,1) EQ '(').REG
         AIF   (T'&NO NE 'N').NOREG
         AIF   (&NO GT 4095).NOREG
         LA    0,&NO.(0,0)                       LOAD REG 0 WITH NO.
         AGO   .AROUND
.USEONE  LA    0,1(0,0)                          ONE ASSUMED FOR NO.
         AGO   .AROUND
.REG     LR    0,&NO(1)                          LOAD REG 0 WITH NO.
         AGO   .AROUND
.NOREG   B     *+6                               BRANCH AROUND NUMBER
         DC    AL2(&NO)                          NUMBER OF BLOCKS
         LH    0,*-2                             LOAD REG 0 WITH NO.
.AROUND  L     15,84(1,0)                        LOAD CONTROL ROUT.ADDR
         AIF   ('&CODE' NE 'DIS').AROUND1
         BAL   14,4(15)                 LINK TO CONTROL RTN
         AGO   .END
.AROUND1  BALR  14,15
.CZCODE  ANOP
&B(1)    SETB  ('&CODE' EQ 'BSR')
&B(2)    SETB  ('&CODE' EQ 'BSM')
&B(3)    SETB  ('&CODE' EQ 'FSR')
&B(4)    SETB  ('&CODE' EQ 'FSM')
&B(5)    SETB  ('&CODE' EQ 'ESD')
&B(6)    SETB  ('&CODE' EQ 'RKB')
&B(7)    SETB  ('&CODE' EQ 'HDR')
&B(8)    SETB  ('&CODE' EQ 'MKL')
&B(9)    SETB  ('&CODE' EQ 'INC')
&B(10)   SETB  ('&CODE' EQ 'EJD')
&B(11)   SETB  ('&CODE' EQ 'SSD')
         AIF   (&B(1)+&B(2)+&B(3)+&B(4)+&B(5)+&B(6)+&B(7)+&B(8)+&B(9)+&X
               B(10)+&B(11) NE 1).E4
&CTR     SETA  39*&B(1)+47*&B(2)+55*&B(3)+63*&B(4)+4*&B(5)+8*&B(6)+12*&X
               B(7)+16*&B(8)+20*&B(9)+24*&B(10)+28*&B(11)
         AIF   (&B(1) OR &B(2) OR &B(3) OR &B(4)).CONTB
         CNOP  0,4
         BAL   0,*+8                    BR AROUND LIST
         DC    AL1(&CTR)
         AIF   (&B(6) OR &B(8) OR &B(9) OR &B(10)).CONTC
         AIF   ('&NO' EQ '').E3
         AIF   (NOT &B(7) AND (T'&NO NE 'N' OR '&NO' LT '1' OR '&NO' GTX
                '4')).E5
         DC    AL3(&NO)
         AGO   .OUT
.CONTC   DC    AL3(0)
         AGO   .OUT
.CONTB   DC    AL2(&CTR)                ACTION QUALIFIER
         AGO   .END
.CMR1A   ANOP
         CNOP  0,4
&NAME    BAL   1,*+12                   BRANCH AROUND LIST
         AIF   ('&DCB'(1,1) EQ '(').MREGD
         DC    A(&DCB)                  DCB ADDRESS
.CMR1B   AIF   ('&NO' EQ '').E3
         AIF   ('&NO'(1,1) EQ '(').MREGL
         DC    A(&NO)                   LIGHT BUCKET ADDRESS
         AIF   (&D2).CMR2A
.CMR1F   L     14,0(1,0)                LOAD DCB ADDRESS
         L     15,84(14,0)              LOAD CNTRL RTN ADDRESS
.CMR1D   BALR  14,15                    BRANCH TO CNTRL RTN
         MEXIT
.MREGD   ANOP
         AIF   ('&DCB' EQ '(1)').E6     REG 1 CANNOT BE USED FOR DCB
         DC    A(0)                     DCB ADDRESS
&D2      SETB  1
         AGO   .CMR1B
.MREGL   ANOP
         AIF   ('&NO' EQ '(1)').E7      REG 1 CANNOT BE USED FOR LT
         DC    A(0)                     LIGHT BUCKET ADDRESS
&D3      SETB  1
         AIF   (NOT &D2).CMR1C
.CMR2A   ST    &DCB(1),0(1)             STORE DCB ADDRESS IN LIST
.CMR1C   AIF   (NOT &D3).CMR1E
         ST    &NO(1),4(1)              STORE LIGHT BUCKET ADDR IN LIST
.CMR1E   AIF   (NOT &D2).CMR1F
         L     15,84(&DCB(1))           LOAD CNTRL RTN ADDRESS
         AGO   .CMR1D
.OUT     L     15,84(1,0)                        LOAD CONTROL ROUT.ADDR
         BALR  14,15                             LINK TO CONTROL ROUT.
         MEXIT
.E1      IHBERMAC 6,024                     DCB MISSING
         AGO   .CHKNO
.E2      IHBERMAC 3,024                     PARAM TWO MISSING
         MEXIT
.E3      IHBERMAC 4,024                     PARAM THREE MISSING
         MEXIT
.E4      IHBERMAC 37,024,&CODE
         MEXIT
.E5      IHBERMAC 38,,&NO
         MEXIT
.E6      IHBERMAC  36,,&DCB             REG 1 INVALID FOR DCB
         MEXIT
.E7      IHBERMAC  38,,&NO              REG 1 INVALID FOR LT
.END     MEND
