         MACRO
&NAME    COUNTER  &PAR1
         GBLA  &IEDQZE(64)
         GBLB  &SEN
         GBLB  &IEDQZA(64)
         LCLB  &NOGO
.* 120000-126000,130000-184000                                    20002
.*D180000                                                          RA06
.*             VERSION DATED OCTOBER 20, 1970                      RA06
         SPACE 1 .                                                20002
         AIF   (NOT &IEDQZA(7)).CQTAM                             20002
         AIF   ((&IEDQZA(1) OR &IEDQZA(2)) AND NOT &IEDQZA(5)).OK 20002
         MNOTE 12,'***  IHB070  SEQUENCE ERROR - MUST FOLLOW INHDR, INB*
               UF, OUTHDR OR OUTBUF MACRO'
&NOGO    SETB  1                                                  20002
.OK      AIF   ('&PAR1' EQ '').OPERR                              20002
         AIF   ('&PAR1'(K'&PAR1,1) EQ ')' OR '&PAR1'(K'&PAR1,1) EQ ''''*
               ).OPERR                                            20002
         AIF   (K'&PAR1 GT 8).OPERR                               20002
         AIF   (('&PAR1'(1,1) GE 'A' AND '&PAR1'(1,1) LE 'Z') OR '&PAR1*
               '(1,1) EQ '$' OR '&PAR1'(1,1) EQ '#' OR '&PAR1'(1,1) EQ *
               '@').VCON                                          20002
.OPERR   MNOTE 12,'***  IHB300  OPTION FIELD OPERAND INVALID AS SPECIFI*
               ED'
&NOGO    SETB  1                                                  20002
.VCON    AIF   (&NOGO).MEND                                       20002
         IEDQVCON (31,32),(IEDQAE,IEDQA7)
&NAME    L     15,IEDMSGS-1 .                                     20002
         L     15,(&IEDQZE(32))(,15) .                            20002
         BALR  1,15 .                                             20002
         DC    AL1(&IEDQZE(31)+&IEDQZA(3)+&IEDQZA(4)),AL1(4),AL1(&PAR1)*
               ,AL1(16) .                                         20002
.MEND    SPACE 2 .                                                20002
         MEXIT
.CQTAM   ANOP
         AIF   ('&PAR1' NE '').GO
         MNOTE 12,'***  IHB004  REQUIRED OPERAND(S) NOT SPECIFIED'
         MEXIT
.GO      AIF   (NOT &SEN).GOTWO
         TM    12(6),X'20'        RECALLED SEGMENT FOR RETRY
         BO    *+34               BRANCH IF YES
.GOTWO   OC    44(2,4),44(4)      VALID SOURCE
         BZ    *+24               BRANCH NO
         TM    40(4),2            DO WE HAVE TERM ADDRESS
         BO    *+16               BRANCH NO
         LH    9,&PAR1                 LOAD PRESENT COUNTER VALUE
         LA    9,1(9)                  ADD ONE
         STH   9,&PAR1                 STORE NEW COUNTER VALUE
         MEND
