         MACRO
&NAME    DATESTMP
         GBLB  &RHDR,&SHDR
         AIF   (&RHDR OR &SHDR).OK
         MNOTE 12,'***  IHB070  SEQUENCE ERROR-MUST FOLLOW SENDHDR OR RX
               CVHDR MACRO'
         MEXIT
.OK      ANOP
&NAME    L     15,=V(IECKDATE)         ADDRESS OF DATE STAMP ROUTINE
         BALR  14,15                   BRANCH TO DATESTAMP ROUTINE
         DC    XL2'07'
         MEND
