         MACRO
&NAME    DEQ   &PARAM,&RMC=,&RET=,&UCB=,&MF=I
         GBLB  &IHBDEQ                                             SDS1
.*0460 000000-999999                                               SDS1
&IHBDEQ  SETB  1                                                   SDS1
         AIF   ('&RMC' EQ '' AND '&RET' EQ '' AND '&UCB' EQ '').DEQ010
         AIF   ('&RMC' EQ '' AND '&RET' EQ '').DEQ020              SDS1
         AIF   ('&RMC' EQ '' AND '&UCB' EQ '').DEQ030              SDS1
         AIF   ('&RET' EQ '' AND '&UCB' EQ '').DEQ040              SDS1
         AIF   ('&RMC' EQ '').DEQ050                               SDS1
         AIF   ('&RET' EQ '').DEQ060                               SDS1
         AIF   ('&UCB' EQ '').DEQ070                               SDS1
&NAME    ENQ   &PARAM,SMC=&RMC,RET=&RET,UCB=&UCB,MF=&MF
         AGO   .DEQ080                                             SDS1
.DEQ010  ANOP                                                      SDS1
&NAME    ENQ   &PARAM,MF=&MF
         AGO   .DEQ080                                             SDS1
.DEQ020  ANOP                                                      SDS1
&NAME    ENQ   &PARAM,UCB=&UCB,MF=&MF
         AGO   .DEQ080                                             SDS1
.DEQ030  ANOP                                                      SDS1
&NAME    ENQ   &PARAM,RET=&RET,MF=&MF
         AGO   .DEQ080                                             SDS1
.DEQ040  ANOP                                                      SDS1
&NAME    ENQ   &PARAM,SMC=&RMC,MF=&MF
         AGO   .DEQ080                                             SDS1
.DEQ050  ANOP                                                      SDS1
&NAME    ENQ   &PARAM,RET=&RET,UCB=&UCB,MF=&MF
         AGO   .DEQ080                                             SDS1
.DEQ060  ANOP                                                      SDS1
&NAME    ENQ   &PARAM,SMC=&RMC,UCB=&UCB,MF=&MF
         AGO   .DEQ080                                             SDS1
.DEQ070  ANOP                                                      SDS1
&NAME    ENQ   &PARAM,SMC=&RMC,RET=&RET,MF=&MF
.DEQ080  AIF   (NOT(&IHBDEQ)).DEQ090                               SDS1
&IHBDEQ  SETB  0                                                   SDS1
         SVC   48                                                  SDS1
.DEQ090  MEND
