        MACRO
&NAME    DETACH &TCB,&STAE=                                       20021
         AIF   ('&TCB' EQ '').E1
&NAME    IHBINNRA &TCB                      LOAD REG 1
         AIF   ('&STAE' EQ '' OR '&STAE' EQ 'NO').G1              20021
         LA    0,X'80'        GET BIT IN REGISTER                 20021
         SLL   0,24           SHIFT INTO HIGH BIT POSITION        20021
         OR    1,0            SET HIGH ORDER BIT IN REG 1         20021
.G1     SVC   62             ISSUE DETACH SVC
         MEXIT
.E1      IHBERMAC 01,324                    MISSING PARAMETER
         MEND
