         MACRO
&NAME    DIRECT &PAR1
         AIF   ('&PAR1' NE '').CONT
         MNOTE 12,'***  IHB001  DEST. OPERAND REQ''D-NOT SPECIFIED'
         MEXIT
.CONT    AIF   ('&PAR1'(1,1) NE '=').OK
         AIF   (K'&PAR1 LT 5 OR K'&PAR1 GT 14).ER1
         AIF   ('&PAR1'(2,1) EQ 'C').OK
.ER1     MNOTE 12,'***  IHB002  INVALID DEST. OPERAND SPECIFIED'
         MEXIT
.OK      ANOP
&NAME    LA    2,&PAR1                 ADDRESS OF DEST. NAME
         L     15,=V(IECKDRCT)         ADDRESS OF DIRECT ROUTINE
         BALR  14,15                   TO THE DIRECT ROUTINE
         MEND
