         MACRO
&NAME    DOM   &MSG=,&MSGLIST=
.*                                                            BE  M1447
&NAME    DS    0H
         AIF   (T'&MSG NE 'O' AND T'&MSGLIST NE 'O').ERR1
         AIF   (T'&MSG EQ 'O').MLIST
         AIF   ('&MSG'(1,1) NE '(').ERR2
         AIF   ('&MSG(1)' EQ '1').SKIPLD1
         AIF   ('&MSG(1)' LT '2' OR '&MSG(1)' GT '12').ERR2
         LR    1,&MSG(1)
.SKIPLD1  ANOP
         XR    0,0
         SVC   87
         MEXIT
.ADR1    ANOP
         L     1,&MSG(1)
         AGO   .SKIPLD1
.MLIST   ANOP
         AIF    (T'&MSGLIST EQ 'O').ERR1
         AIF   ('&MSGLIST'(1,1) NE '(').ADR2
         AIF   ('&MSGLIST(1)' EQ '1').SKIPLD2
         AIF   ('&MSGLIST(1)' LT '2' OR '&MSGLIST(1)' GT '12').ERR2
         LR    1,&MSGLIST(1)
.SKIPLD2  ANOP
         LNR   0,1
         SVC   87
         MEXIT
.ADR2    ANOP
         LA    1,&MSGLIST
         AGO    .SKIPLD2
.ERR1    IHBERMAC   24
         MEXIT
.ERR2    IHBERMAC  18
         MEND
