         MACRO
&NAME    ENDRCV
         GBLB  &SW,&RCV,&SEN,&RHDR,&SHDR,&BWTTA                    000C
         GBLC  &SEND,&TEXT,&MGTP
.*2719120000,648000-672000                                         000C
         AIF   ('&NAME' EQ '').NONAME
&NAME    DS    0H
.NONAME  AIF   (&RCV AND NOT &SEN).OK
         MNOTE 12,'***  IHB071  SEQUENCE ERROR IN LPS DELIMITER MACRO'
.OK      AIF   ('&TEXT' EQ '' OR '&MGTP' EQ '').NOEQU
&MGTP    EQU   *
.NOEQU   ANOP
&RHDR    SETB  0
&SHDR    SETB  0
&TEXT    L     15,0(13)                BASE FOR LPS QUEUE
         TM    12(6),X'42'             TEST MSTATUS
         BZ    244(15)                 TO BUFFER CLEANUP IN IGG019NG
         AIF   (NOT &BWTTA).NOWTTA                                 000C
         L     15,=V(IECKEOBK)         WRU RESPONSE ROUTINE ADDRESS000C
         BALR  14,15                   TO WRU SUB-ROUTINE          000C
.NOWTTA  ANOP                                                      000C
&TEXT    SETC  ''
&MGTP    SETC  'E'
.END     MEND
