         MACRO
&NAME    ENDSEND
         GBLB  &SW,&RCV,&SEN,&RHDR,&SHDR
         GBLC  &SEND,&TEXT,&MGTP
         AIF   ('&NAME' EQ '').NONAME
&NAME    DS    0H
.NONAME  AIF   (&SEN AND NOT &RCV).OK
         MNOTE 12,'***  IHB071  SEQUENCE ERROR IN LPS DELIMITER MACRO'
.OK      AIF   (NOT &SW).NOFS
&SEND    TM    12(6),X'10'             TEST MSTATUS
         L     15,0(13)                ADDRESS OF LPS QUEUE
         BC    7,*+8
         BAL   14,236(15)              ACTIVATE ROUTINE IN IGG019NG
&SW      SETB  0
&SEND    SETC  'IHB'.'&SYSNDX'
         AGO   .COMM
.NOFS    AIF   ('&TEXT' EQ '' OR '&MGTP' EQ '').NOEQU
&MGTP    EQU   *
.NOEQU   ANOP
&TEXT    L     15,0(13)                LPS QUEUE ADDRESS
         BAL   14,236(15)              TO ACTIVATE ROUTINE IN IGG019NG
&SEND    EQU   *
.COMM    ANOP
&RHDR    SETB  0
&SHDR    SETB  0
&TEXT    SETC  ''
&MGTP    SETC  'E'
.END     MEND
