         MACRO
&NAME    EOA   &PAR1
         GBLC  &TEXT
         AIF   ('&PAR1' NE '').GO
         MNOTE 12,'***  IHB001  EOA OPERAND REQ''D-NOT SPECIFIED'
         MEXIT
.GO      AIF   (K'&PAR1 LT 4 OR K'&PAR1 GT 7 OR '&PAR1'(K'&PAR1,1) NE 'X
               ''').ER
         AIF   (K'&PAR1 EQ 6 AND '&PAR1'(1,3) EQ 'CL1').OK
         AIF   (K'&PAR1 EQ 5 AND '&PAR1'(1,2) EQ 'X''').OK
         AIF   (K'&PAR1 EQ 4 AND '&PAR1'(1,2) EQ 'C''').OK
         AIF   (K'&PAR1 GT 5 AND '&PAR1'(1,4) EQ 'XL1''').OK
.ER      MNOTE 12,'***  IHB002  INVALID EOA OPERAND SPECIFIED'
         MEXIT
.OK      ANOP
&NAME    L     1,=V(IECKEOAD)          EOA SUBROUTINE ADDRESS
         L     15,=V(IECKTYPE)         MESSAGE TYPE ROUTINE ADDRESS
         BALR  14,15                   TO MESSAGE TYPE ROUTINE
         DC    X'0001'             FIELD SIZE
         DC    &PAR1           EOA CHARACTER
         DC    C' '                BLANK
         TM    12(6),X'40'             TEST IF COPYING HEADER
         BC    1,&TEXT                 IF YES BRANCH TO END RECEIVE
         MEND
