         MACRO
&NAME    EOB
&NAME    L     15,=V(IECKEOBK)         EOB SUB ROUTINE ADDRESS
         BALR  14,15                   TO EOB SUB ROUTINE
         MEND
