         MACRO
&NAME    EOBLC
&NAME    L     15,=V(IECKEOBC)         EOBLC ROUTINE ADDRESS
         BALR  14,15                   TO EOBLC ROUTINE
         MEND
