         MACRO
&NAME    FDCTRL &IF=,&IND=,&COMMAND=,&TOTAL=,&GOTO=,&SAVELOC=,&CYCLE=, X
               &CTR=
         COPY  IDFGBL
         AIF   (&PIB(46)).TX  SYNTAX CHECK
         AIF   (NOT &PIB(13)).X1        NOT LOAD MODE             FSDB
.**********************************************************************
.*                                                                    *
.*             PURGE FILE IN LOAD MODE                                *
.*                         REFERENCE APAR IR00271                     *
.*                                                                    *
.**********************************************************************
&PIB(1)  SETB  (T'&SYSLIST(1) NE 'O' OR T'&IF NE 'O' OR T'&GOTO NE 'O' X
               OR T'&TOTAL NE 'O' OR T'&SAVELOC NE 'O')
&PIB(1)  SETB  (&PIB(1) OR T'&CYCLE NE 'O' OR T'&CTR NE 'O')
         AIF   (&PIB(1) OR &PIB(27) OR &PIB(2)).JC01
         AIF   ('&COMMAND' NE 'PURGE' AND '&COMMAND' NE 'PURGE(FILE)').X
               JC01
         IDFASM (,4776)
         IDFASM (,4378)
         MNOTE *,'IDF158 FILE PURGED IN LOAD MODE.'
         AGO   .TX
.JC01    MNOTE 8,'IDF791 INVALID USE OF FDCTRL IN LOAD MODE.'
&PIB(15) SETB  1
         AGO   .TX                                                FSJM
.X1      AIF   (NOT&PIB(48)).TR
         MNOTE *,'IDF100 IN TRACE MODE ENTERING FDCTRL'
.TR      ANOP
.**********************************************************************
.*                                                                    *
.*                           CONTINUATION CHECK                       *
.*                                                                    *
.**********************************************************************
&PIB(1)  SETB  (&PIB(2) AND NOT &PIB(3))
         AIF   (NOT &PIB(1)).I0033
         IDFMSG 018                    INVLAID CONTINUATION
         IDFIN01
         IDFIN02
         IDFIN03
         AIF   (&PIB(3)).CTC
         IDFIN04
         IDFIN05
         AIF   (&PIA(1) NE 4).ENDC
         IDFIN06
         IDFIN07
         IDFIN08
         AGO   .ENDC
.CTC     IDFIN09
         IDFIN10
.ENDC    IDFIN11
.I0033   ANOP
.**********************************************************************
.*                                                                    *
.*                           ORDER CHECK                              *
.*                                                                    *
.**********************************************************************
&PIB(1)  SETB  (&PIA(2) EQ 0)
         AIF   (NOT &PIB(1)).I0034
         IDFMSG 008  FDFORM MUST START FORM
.I0034   ANOP ,
         AIF   (&PIB(1)).C2
         AIF   (&PIB(2)).C0
.**********************************************************************
.*                                                                    *
.*                           SETUP                                    *
.*                                                                    *
.**********************************************************************
&PIB(25) SETB  (&PIB(7) OR &PIB(9)) INVOKE END CYCLE          A01301
&PIB(42) SETB  1 INVOKE IMPLICIT GOTO
&PIB(40) SETB  1 ALLOW GOTO
&PIB(35) SETB  1 INVOKE END CTRL
.C0      ANOP
&PIB(3)  SETB  1
&PIB(1)  SETB  1
         IDFIN01 &IF,&IND,&CTR,&COMMAND,&TOTAL,                        X
               &GOTO,,,,&SAVELOC,                                      X
               &NAME,,&CYCLE
         IDFIN02 &IF,&IND,&CTR,&COMMAND,&TOTAL,                        X
               &GOTO,,,,&SAVELOC,                                      X
               &NAME,&SYSLIST(1),&CYCLE
         IDFIN03 &IF,&IND,&CTR,&COMMAND,&TOTAL,                        X
               &GOTO,,,,&SAVELOC,                                      X
               &NAME,,&CYCLE
         IDFIN09 &IF,&IND,&CTR,&COMMAND,&TOTAL,                        X
               &GOTO,,,,&SAVELOC,                                      X
               &NAME,,&CYCLE
         IDFIN10 &IF,&IND,&CTR,&COMMAND,&TOTAL,                        X
               &GOTO,,,,&SAVELOC,                                      X
               &NAME,,&CYCLE
         IDFIN11 &IF,&IND,&CTR,&COMMAND,&TOTAL,                        0
               &GOTO,,,,&SAVELOC,                                      X
               &NAME,,&CYCLE
&PIB(3)  SETB  (&PIB(2))                FDCTRL MODE OFF UNLESS CONTIN
.C2      AIF   (NOT &PIB(48)).TX
         MNOTE *,'IDF100 IN TRACE MODE LEAVING FDCTRL'
.TX      ANOP
         MEND
