         MACRO
&NAME    FDEND
         COPY  IDFGBL
         AIF   (&PIB(46)).TX  SYNTAX CHECK
         AIF   (NOT &PIB(48)).TR
         MNOTE *,'IDF100 IN TRACE MODE ENTERING FDEND'
.TR      ANOP
.**********************************************************************
.*                                                                    *
.*                           CONTINUATION CHECK                       *
.*                                                                    *
.**********************************************************************
&PIB(1)  SETB  (&PIB(2))
         AIF   (NOT &PIB(1)).I0035
         IDFMSG 018                     INVALID CONTINUATION
         IDFIN01
         IDFIN02
         IDFIN03
         AIF   (&PIB(3)).CTC
         IDFIN04
         IDFIN05
         AIF   (&PIA(1) NE 4).ENDC
         IDFIN06
         IDFIN07
         IDFIN08
         AGO   .ENDC
.CTC     IDFIN09
         IDFIN10
.ENDC    IDFIN11
.I0035   ANOP ,
.**********************************************************************
.*                                                                    *
.*                           ORDER CHECK                              *
.*                                                                    *
.**********************************************************************
&PIB(1)  SETB  (&PIA(2) EQ 0)
         AIF   (NOT &PIB(1)).I0036
         IDFMSG 007  FDEND NOT NEEDED
.I0036   ANOP ,
         AIF   (&PIB(1)).E1
&PIB(1)  SETB  (&PIB(5))
         AIF   (NOT &PIB(1)).I0037
         IDFMSG 016                     FDEND IN CYCLE
.I0037   ANOP ,
.**********************************************************************
.*                                                                    *
.*                           SETUP                                    *
.*                                                                    *
.**********************************************************************
&PIB(15) SETB  (&PIB(15) OR &PIB(1))
&PIB(25) SETB  (&PIB(7) OR &PIB(8) OR &PIB(9))
&PIB(8)  SETB  0    RESET SUMMARY
&PIB(9)  SETB  0
&PIA(1)  SETA  0
&PIB(1)  SETB  1
&PIB(35) SETB  1 INVOKE END CTRL
         IDFIN01 ,,,,,,,,,,&NAME
         IDFIN02 ,,,,,,,,,,&NAME
         IDFIN03 ,,,,,,,,,,&NAME
         IDFIN11 ,,,,,,,,,,&NAME
.E1      AIF   (NOT &PIB(48)).TX
         MNOTE *,'IDF100 IN TRACE MODE LEAVING FDEND'
.TX      ANOP
         MEND
