         MACRO
&NAME     FDFIELD &SOURCE=,&KIND=,&SELFCHK=,&SINK=,&JUSTIFY=,          X
               &FILL=,&UL=,            FIELD-LEVEL OP'NDS              X
               &SAVELOC=,                                              X
               &CYCLE=,                                                X
               &COUNT=,&COMPARE=,&CTR=,&IND=,&PICTURE=,&BATCH=
         COPY  IDFGBL
         AIF   (&PIB(46)).TX  SYNTAX CHECK
         AIF   (NOT &PIB(13)).X1
         MNOTE 0,'IDF464 FDFIELD IGNORED IN LOAD MODE'            FSDB
         AGO   .TX                                                FSJM
.X1      AIF   (NOT &PIB(48)).TR
         MNOTE *,'IDF100 IN TRACE MODE ENTERING FDFIELD'
.TR      ANOP
.**********************************************************************
.*                                                                    *
.*                           CONTINUATION CHECK                       *
.*                                                                    *
.**********************************************************************
&PIB(1)  SETB  (&PIB(2) AND (&PIA(1) NE 4 OR &PIB(3)))
         AIF   (NOT &PIB(1)).I0029
         IDFMSG 018                    CONTINUATION OF NON-FIDLD
         IDFIN01
         IDFIN02
         IDFIN03
         AIF   (&PIB(3)).CTC
         IDFIN04
         IDFIN05
         AIF   (&PIA(1) NE 4).ENDC
         IDFIN06
         IDFIN07
         IDFIN08
         AGO   .ENDC
.CTC     IDFIN09
         IDFIN10
.ENDC    IDFIN11
.I0029   ANOP ,
.**********************************************************************
.*                                                                    *
.*                           ORDER CHECK                              *
.*                                                                    *
.**********************************************************************
&PIB(1)  SETB  (&PIA(2) EQ 0)
         AIF   (NOT &PIB(1)).I0030
         IDFMSG 008  FDFORM MUST START FORM
.I0030   ANOP ,
         AIF   (&PIB(1)).F2
         AIF   (&PIA(2) NE 1).I0031
&PIB(1)  SETB  1
&PIA(1)  SETA  2
         IDFMSG1 112
         IDFIN01
         IDFIN02
         IDFIN03
         IDFIN04
         IDFIN05
         IDFIN11
.I0031   AIF   (&PIA(2) NE 2).I0032
&PIB(1)  SETB  1
&PIA(1)  SETA  3
         IDFMSG1 112
         IDFIN01
         IDFIN02
         IDFIN03
         IDFIN04
         IDFIN05
         IDFIN11
&PIB(15) SETB  1
.I0032   ANOP
         AIF   (&PIB(2)).F0
.**********************************************************************
.*                                                                    *
.*                           SETUP                                    *
.*                                                                    *
.**********************************************************************
&PIB(25) SETB  (&PIB(9) OR &PIB(7)) SET END CYCLE              A01301
&PIB(42) SETB  1 INVOKE IMPLICT GOTO
&PIB(35) SETB  1 INVOKE END CTRL
.F0      ANOP
&PIA(1)  SETA  4
         IDFIN01 &SOURCE,&SELFCHK,&KIND,&SINK,&FILL,&JUSTIFY,&UL,,,    X
               &SAVELOC,&NAME,&SYSLIST(1),&CYCLE,,,&COUNT,&COMPARE,    X
               &CTR,&IND,&PICTURE,&BATCH,&SYSLIST(2)
         IDFIN02 &SOURCE,&SELFCHK,&KIND,&SINK,&FILL,&JUSTIFY,&UL,,,    X
               &SAVELOC,&NAME,&SYSLIST(1),&CYCLE,,,&COUNT,&COMPARE,    X
               &CTR,&IND,&PICTURE,&BATCH,&SYSLIST(2)
         IDFIN03 &SOURCE,&SELFCHK,&KIND,&SINK,&FILL,&JUSTIFY,&UL,,,    X
               &SAVELOC,&NAME,&SYSLIST(1),&CYCLE,,,&COUNT,&COMPARE,    X
               &CTR,&IND,&PICTURE,&BATCH,&SYSLIST(2)
         IDFIN04 &SOURCE,&SELFCHK,&KIND,&SINK,&FILL,&JUSTIFY,&UL,,,    X
               &SAVELOC,&NAME,&SYSLIST(1),&CYCLE,,,&COUNT,&COMPARE,    X
               &CTR,&IND,&PICTURE,&BATCH,&SYSLIST(2)
         IDFIN05 &SOURCE,&SELFCHK,&KIND,&SINK,&FILL,&JUSTIFY,&UL,,,    X
               &SAVELOC,&NAME,&SYSLIST(1),&CYCLE,,,&COUNT,&COMPARE,    X
               &CTR,&IND,&PICTURE,&BATCH,&SYSLIST(2)
         IDFIN06 &SOURCE,&SELFCHK,&KIND,&SINK,&FILL,&JUSTIFY,&UL,,,    X
               &SAVELOC,&NAME,&SYSLIST(1),&CYCLE,,,&COUNT,&COMPARE,    X
               &CTR,&IND,&PICTURE,&BATCH,&SYSLIST(2)
         IDFIN07 &SOURCE,&SELFCHK,&KIND,&SINK,&FILL,&JUSTIFY,&UL,,,    X
               &SAVELOC,&NAME,&SYSLIST(1),&CYCLE,,,&COUNT,&COMPARE,    X
               &CTR,&IND,&PICTURE,&BATCH,&SYSLIST(2)
         IDFIN08 &SOURCE,&SELFCHK,&KIND,&SINK,&FILL,&JUSTIFY,&UL,,,    X
               &SAVELOC,&NAME,&SYSLIST(1),&CYCLE,,,&COUNT,&COMPARE,    X
               &CTR,&IND,&PICTURE,&BATCH,&SYSLIST(2)
         IDFIN11 &SOURCE,&SELFCHK,&KIND,&SINK,&FILL,&JUSTIFY,&UL,,,    X
               &SAVELOC,&NAME,&SYSLIST(1),&CYCLE,,,&COUNT,&COMPARE,    X
               &CTR,&IND,&PICTURE,&BATCH,&SYSLIST(2)
.F2      AIF   (NOT &PIB(48)).TX
         MNOTE *,'IDF100 IN TRACE MODE LEAVING FDFIELD'
.TX      ANOP
         MEND
