         MACRO
&NAME     FDLINE &SOURCE=,&KIND=,&SELFCHK=,&SINK=,&JUSTIFY=,           X
               &FILL=,&UL=,            FIELD-LEVEL OP'NDS              X
               &WIDTH=,&HMRG=,         LINE-LEVEL OP'NDS               X
               &SAVELOC=,                                              X
               &CYCLE=
         COPY  IDFGBL
         AIF   (&PIB(46)).TX  SYNTAX CHECK
         AIF   (NOT &PIB(13)).X1
         MNOTE 0,'IDF464 FDLINE IGNORED IN LOAD MODE'             FSDB
         AGO   .TX                                                FSJM
.X1      AIF   (NOT &PIB(48)).TR
         MNOTE *,'IDF100 IN TRACE MODE ENTERING FDLINE'
.TR      ANOP
.**********************************************************************
.*                                                                    *
.*                           CONTINUATION CHECK                       *
.*                                                                    *
.**********************************************************************
&PIB(1)  SETB  (&PIB(2))
         AIF   (NOT &PIB(1)).I0026
         IDFMSG 018                    INVALID CONTINUATION
         IDFIN01
         IDFIN02
         IDFIN03
         AIF   (&PIB(3)).CTC
         IDFIN04
         IDFIN05
         AIF   (&PIA(1) NE 4).ENDC
         IDFIN06
         IDFIN07
         IDFIN08
         AGO   .ENDC
.CTC     IDFIN09
         IDFIN10
.ENDC    IDFIN11
.I0026   ANOP ,
.**********************************************************************
.*                                                                    *
.*                           ORDER CHECK                              *
.*                                                                    *
.**********************************************************************
&PIB(1) SETB   (&PIA(2) EQ 0)
         AIF   (NOT &PIB(1)).I0027
         IDFMSG 008  FDFORM MUST START FORM
.I0027   ANOP ,
         AIF   (&PIB(1)).L1
         AIF   (&PIA(2) NE 1).I0031
&PIB(1)  SETB  1
&PIA(1)  SETA  2
         IDFMSG1 112
         IDFIN01
         IDFIN02
         IDFIN03
         IDFIN04
         IDFIN05
         IDFIN11
&PIB(15) SETB  1
.I0031   AIF   (&PIB(2)).L0
.**********************************************************************
.*                                                                    *
.*                           SETUP                                    *
.*                                                                    *
.**********************************************************************
&B(1)    SETB  0  ASSUME SKIP NOT CODED
         AIF   (K'&SYSLIST(1,1) LE 6).S0 SKIP NOT CODED
&B(1)    SETB  ('&SYSLIST(1,1)'(1,5) EQ 'SKIP(') SKIP CODED
.S0      ANOP
&PIB(25) SETB  (NOT &B(1) AND (&PIB(7) OR &PIB(8) OR &PIB(9)))
&PIB(8)  SETB  (&B(1) AND (&PIB(7) OR &PIB(8) OR &PIB(9)))
&PIB(9)  SETB  (&PIB(9) OR (&B(1) AND &PIB(7)))                A01301
&PIB(21) SETB  (&B(1) AND &PIB(9)) SET START OF SUMMARY BLOCK  A01301
.L0      ANOP
&PIA(1)  SETA  3
&PIB(1)  SETB  1
         IDFIN01 &SOURCE,&SELFCHK,&KIND,&SINK,&FILL,&JUSTIFY,&UL,      X
               &WIDTH,&HMRG,&SAVELOC,&NAME,&SYSLIST(1),&CYCLE
         IDFIN02 &SOURCE,&SELFCHK,&KIND,&SINK,&FILL,&JUSTIFY,&UL,      X
               &WIDTH,&HMRG,&SAVELOC,&NAME,&SYSLIST(1),&CYCLE
         IDFIN03 &SOURCE,&SELFCHK,&KIND,&SINK,&FILL,&JUSTIFY,&UL,      X
               &WIDTH,&HMRG,&SAVELOC,&NAME,&SYSLIST(1),&CYCLE
         IDFIN04 &SOURCE,&SELFCHK,&KIND,&SINK,&FILL,&JUSTIFY,&UL,      X
               &WIDTH,&HMRG,&SAVELOC,&NAME,&SYSLIST(1),&CYCLE
         IDFIN05 &SOURCE,&SELFCHK,&KIND,&SINK,&FILL,&JUSTIFY,&UL,      X
               &WIDTH,&HMRG,&SAVELOC,&NAME,&SYSLIST(1),&CYCLE
         IDFIN11 &SOURCE,&SELFCHK,&KIND,&SINK,&FILL,&JUSTIFY,&UL,      X
               &WIDTH,&HMRG,&SAVELOC,&NAME,&SYSLIST(1),&CYCLE
.L1      AIF   (NOT &PIB(48)).TX
         MNOTE *,'IDF100 IN TRACE MODE LEAVING FDLINE'
.TX      ANOP
         MEND
