         MACRO
&NAME     FDPAGE &SOURCE=,&KIND=,&SELFCHK=,&SINK=,&JUSTIFY=,           X
               &FILL=,&UL=,            FIELD-LEVEL OP'NDS              X
               &WIDTH=,&HMRG=,         LINE-LEVEL OP'NDS               X
               &HEIGHT=,&VMRG=,        PAGE-LEVEL OP'NDS               X
               &SAVELOC=
         COPY  IDFGBL
         AIF   (&PIB(46)).TX  SYNTAX CHECK
         AIF   (NOT &PIB(13)).X1
         MNOTE 0,'IDF464 FDPAGE IGNORED IN LOAD MODE'             FSDB
         AGO   .TX                                                FSJM
.X1      AIF   (NOT &PIB(48)).TR
         MNOTE *,'IDF100 IN TRACE MODE ENTERING FDPAGE'
.TR      ANOP
.**********************************************************************
.*                                                                    *
.*                           CONTINUATION CHECK                       *
.*                                                                    *
.**********************************************************************
&PIB(1)  SETB  (&PIB(2))
         AIF   (NOT &PIB(1)).I0023
         IDFMSG 018                    PREVIOUS MACRO CONT'N
         IDFIN01
         IDFIN02
         IDFIN03
         AIF   (&PIB(3)).CTC
         IDFIN04
         IDFIN05
         AIF   (&PIA(1) NE 4).ENDC
         IDFIN06
         IDFIN07
         IDFIN08
         AGO   .ENDC
.CTC     IDFIN09
         IDFIN10
.ENDC    IDFIN11
.I0023   ANOP ,
.**********************************************************************
.*                                                                    *
.*                           ORDER CHECK                              *
.*                                                                    *
.**********************************************************************
&PIB(1)  SETB  (&PIA(2) EQ 0)
         AIF   (NOT &PIB(1)).I0024
         IDFMSG 008  FDFORM MUST START FORM
.I0024   ANOP ,
         AIF   (&PIB(1)).P1
&PIB(1)  SETB  (&PIB(5))
         AIF   (NOT &PIB(1)).I0025
         IDFMSG 015                    PAGE IN CYCLE
.I0025   ANOP ,
&PIB(15) SETB  (&PIB(15) OR &PIB(1))
         AIF   (&PIB(1)).P1
         AIF   (&PIB(2)).P0
.**********************************************************************
.*                                                                    *
.*                           SETUP                                    *
.*                                                                    *
.**********************************************************************
&PIB(25) SETB  (&PIB(7) OR &PIB(8) OR &PIB(9)) POST LIM/SUM/POST SUM
&PIB(8)  SETB  0    RESET SUMMARY STATE
&PIB(9)  SETB  0  RESET POST SUMMARY
.P0      ANOP
&PIA(1)  SETA  2
&PIB(1) SETB 1
         IDFIN01 &SOURCE,&SELFCHK,&KIND,&SINK,&FILL,&JUSTIFY,&UL,      X
               &WIDTH,&HMRG,&SAVELOC,&NAME,&SYSLIST(1),,&HEIGHT,&VMRG
         IDFIN02 &SOURCE,&SELFCHK,&KIND,&SINK,&FILL,&JUSTIFY,&UL,      X
               &WIDTH,&HMRG,&SAVELOC,&NAME,&SYSLIST(1),,&HEIGHT,&VMRG
         IDFIN03 &SOURCE,&SELFCHK,&KIND,&SINK,&FILL,&JUSTIFY,&UL,      X
               &WIDTH,&HMRG,&SAVELOC,&NAME,&SYSLIST(1),,&HEIGHT,&VMRG
         IDFIN04 &SOURCE,&SELFCHK,&KIND,&SINK,&FILL,&JUSTIFY,&UL,      X
               &WIDTH,&HMRG,&SAVELOC,&NAME,&SYSLIST(1),,&HEIGHT,&VMRG
         IDFIN05 &SOURCE,&SELFCHK,&KIND,&SINK,&FILL,&JUSTIFY,&UL,      X
               &WIDTH,&HMRG,&SAVELOC,&NAME,&SYSLIST(1),,&HEIGHT,&VMRG
         IDFIN11 &SOURCE,&SELFCHK,&KIND,&SINK,&FILL,&JUSTIFY,&UL,      X
               &WIDTH,&HMRG,&SAVELOC,&NAME,&SYSLIST(1),,&HEIGHT,&VMRG
.P1      AIF   (NOT &PIB(48)).TX
         MNOTE *,'IDF100 IN TRACE MODE LEAVING FDPAGE'
.TX      ANOP
         MEND
