         MACRO
&NAME    GAIC  &ADDR,&GROUP
&NAME    IHBGAM1 10983,&ADDR,&GROUP
         MEND
