         MACRO
&NAME    GBPOS
         GBLA  &IHBBPX,&IHBBPY
         IHBERMAC 185,&IHBBPX,&IHBBPY
         MEND
