         MACRO
&NAME  GCON  &UNIT            UNIT CONNECT ORDER
         GBLA  &IHBBLC,&IHBBLIM
         IHBGAM3
&IHBBLC    SETA  &IHBBLC+2              UPDATE BUFFER-LOC COUNTER
       AIF     (&IHBBLC LE &IHBBLIM).PROC
         IHBERMAC 182
.PROC    AIF   (T'&UNIT EQ 'O').NOTE    DETERMINE UNIT
         AIF   ('&UNIT'(1,1) EQ 'R').RECRT
         AIF   ('&UNIT'(1,1) EQ 'S').SCANR
         AIF   ('&UNIT'(1,1) EQ 'A').APERT
         AIF   ('&UNIT'(1,1) EQ 'D').DEFLR
.NOTE    IHBERMAC  180,UNIT,DEFLECTION
.DEFLR ANOP
&NAME  DC      H'10923'
       MEXIT
.RECRT ANOP
&NAME  DC      H'10920'
       MEXIT
.SCANR ANOP
&NAME  DC      H'10921'
       MEXIT
.APERT ANOP
&NAME  DC      H'10922'
       MEND
