         MACRO
&NAME    GDSF  &A,&B,&C
         GBLA  &IHBBLC,&IHBBLIM,&IHBXSP,&IHBYSP,&IHBVSP,&IHBBPX
         GBLA  &IHBBPY,&IHBCRSZ
         LCLC  &RD,&CL,&SP,&BASE,&CHAR1
&RD      SETC  '0'
&CL      SETC  '0'
&SP      SETC  '0'
&BASE    SETC  '00001'
&IHBBLC    SETA  &IHBBLC+1
         AIF   (&IHBBLC LE &IHBBLIM).TESTA
         IHBERMAC 182
.TESTA   AIF   (T'&A EQ 'O').TESTB
         AIF   ('&A'(1,1) EQ 'R').SETRDA
         AIF   ('&A'(1,1) EQ 'C').SETCLA
         AIF   ('&A'(1,1) EQ 'S').SETSPA
         IHBERMAC  183,PARAM-1,NO-FUNCTION
.TESTB   AIF   (T'&B EQ 'O').TESTC
         AIF   ('&B'(1,1) EQ 'R').SETRDB
         AIF   ('&B'(1,1) EQ 'C').SETCLB
         AIF   ('&B'(1,1) EQ 'S').SETSPB
         IHBERMAC  183,PARAM-2,NO-FUNCTION
.TESTC   AIF   (T'&C EQ 'O').PROCEED
         AIF   ('&C'(1,1) EQ 'R').SETRDC
         AIF   ('&C'(1,1) EQ 'C').SETCLC
         AIF   ('&C'(1,1) EQ 'S').SETSPC
         IHBERMAC  183,PARAM-3,NO-FUNCTION
.PROCEED ANOP
&CHAR1   SETC  '&BASE'.'&RD'.'&CL'.'&SP'
&NAME    DC    BL1'&CHAR1'
         AIF   ('&SP' NE '1').EXIT
         AIF   (&IHBVSP EQ 1).VSINC
.ERROR   IHBERMAC 187
.EXIT    MEXIT
.VSINC   ANOP
&IHBBPX    SETA  &IHBBPX+&IHBXSP
&IHBBPY    SETA  &IHBBPY+&IHBYSP
         AIF   (&IHBBPX LT 0 OR &IHBBPX GT 4095).VSXERR
.VSYTST  AIF   (&IHBBPY LT 0 OR &IHBBPY GT 4095).VSYERR
         MEXIT
.VSXERR  IHBERMAC  186,BPX
         AGO   .VSYTST
.VSYERR  IHBERMAC  186,BPY
               MEXIT
.SETRDA  ANOP
&RD      SETC  '1'
         AGO   .TESTB
.SETCLA  ANOP
&CL      SETC  '1'
         AGO   .TESTB
.SETSPA  ANOP
&SP      SETC  '1'
         AGO   .TESTB
.SETRDB  ANOP
&RD      SETC  '1'
         AGO   .TESTC
.SETCLB  ANOP
&CL      SETC  '1'
         AGO   .TESTC
.SETSPB  ANOP
&SP      SETC  '1'
         AGO   .TESTC
.SETRDC  ANOP
&RD      SETC  '1'
         AGO   .PROCEED
.SETCLC  ANOP
&CL      SETC  '1'
         AGO   .PROCEED
.SETSPC  ANOP
&SP      SETC  '1'
         AGO   .PROCEED
         MEND
