         MACRO
&NAME  GESM  &SIZE            ENTER STROKE MODE
         GBLA  &IHBCRSZ
         GBLA  &IHBBLC,&IHBBLIM,&IHBSMSW
         IHBGAM3
&IHBSMSW  SETA  1
&IHBBLC    SETA  &IHBBLC+2              UPDATE BUFFER-LOC COUNTER
       AIF     (&IHBBLC LE &IHBBLIM).OK
         IHBERMAC 182
.OK      AIF   (T'&SIZE EQ 'O').NOTE    VALIDATE CHARACTER SIZE
         AIF   ('&SIZE'(1,1) EQ 'B').BASRT
         AIF   ('&SIZE'(1,1) EQ 'L').LARRT
         AIF   ('&SIZE'(1,1) EQ 'S').SMART
         AIF   ('&SIZE'(1,1) EQ 'U').UNCHR
.NOTE    IHBERMAC  180,SIZE,UNCHANGED
.UNCHR ANOP
&NAME  DC      H'10843'
         MEXIT
.SMART ANOP
&IHBCRSZ SETA  0
&NAME  DC      H'10842'
         MEXIT
.LARRT ANOP
&IHBCRSZ SETA  2
&NAME  DC      H'10841'
         MEXIT
.BASRT ANOP
&IHBCRSZ SETA  1
&NAME  DC      H'10840'
       MEND
