         MACRO
&NAME  GESU
&NAME    IHBGAM2 10930
         MEND
