         MACRO
&NAME    GET   &DCB,&AREA,&DUMMY=
         AIF   ('&DCB' EQ '').E1
&NAME    IHBINNRA &DCB,&AREA
         L     15,48(0,1)                        LOAD GET ROUTINE ADDR.
         BALR  14,15                             LINK TO GET ROUTINE
         MEXIT
.E1      IHBERMAC 06
         MEND
