         MACRO
&NAME  GFEF
&NAME    IHBGAM2 10932
         MEND
