         MACRO
&NAME    GLCW  &ADDR,&GROUP
&NAME    IHBGAM1 10976,&ADDR,&GROUP
         MEND
