         MACRO
&NAME    GLIC  &ADDR,&GROUP
&NAME    IHBGAM1 10977,&ADDR,&GROUP
         MEND
