         MACRO
&NAME    GLRC  &ADDR,&GROUP
&NAME    IHBGAM1 10978,&ADDR,&GROUP
         MEND
