         MACRO
&NAME    GLRR  &ADDR,&GROUP
&NAME    IHBGAM1 10980,&ADDR,&GROUP
         MEND
