         MACRO
&NAME    GLTR  &ADDR,&GROUP
&NAME    IHBGAM1 10979,&ADDR,&GROUP
         MEND
