       MACRO
&NAME  GLVS  &DX,&DY          LOAD VARIABLE SPACE
         GBLA  &IHBBLC,&IHBBLIM,&IHBVSP,&IHBXSP,&IHBYSP
         LCLA  &WX,&WY,&BLCBUK
         LCLC  &XBUK,&YBUK
         IHBGAM3
&IHBVSP      SETA  1
&IHBBLC    SETA  &IHBBLC+4              UPDATE BUFFER-LOC COUNTER
       AIF     (&IHBBLC LE &IHBBLIM).TESTX
         IHBERMAC 182
.TESTX ANOP
&NAME  DC      H'10968'
       AIF     (T'&DX EQ 'O').NOX
         AIF   ('&DX'(1,1) EQ '+' OR '&DX'(1,1) EQ '-').XSIGN
         AIF   (T'&DX NE 'N').NOX
&WX      SETA  &DX
.XTEST   AIF   (&WX GT 127).NOX
         AIF   ('&DX'(1,1) EQ '-').XNEG
.XRAT  ANOP
       DC      FL1'&WX'
       AGO     .TESTY
.NOX     IHBERMAC  180,DX,56-R.U.
&WX    SETA    56
         AGO   .XRAT
.XSIGN   ANOP
&WX      SETA  K'&DX-1
&XBUK    SETC  '&DX'(2,&WX)
&WX      SETA  &XBUK
         AGO   .XTEST
.XNEG    DC    FL1'-&WX'
&WX      SETA  0-&WX
.TESTY ANOP
&IHBXSP  SETA  &WX
       AIF     (T'&DY EQ 'O').NOY
         AIF   ('&DY'(1,1) EQ '+' OR '&DY'(1,1) EQ '-').YSIGN
         AIF   (T'&DY NE 'N').NOY
&WY      SETA  &DY
.YTEST   AIF   (&WY GT 127).NOY
         AIF   ('&DY'(1,1) EQ '-').YNEG
.YRAT  ANOP
       DC      FL1'&WY'
         AGO   .YSP
.NOY     IHBERMAC  180,DY,0-R.U.
&WY    SETA    0
         AGO   .YRAT
.YSIGN   ANOP
&WY      SETA  K'&DY-1
&YBUK    SETC  '&DY'(2,&WY)
&WY      SETA  &YBUK
         AGO   .YTEST
.YNEG    DC    FL1'-&WY'
&WY      SETA  0-&WY
.YSP     ANOP
&IHBYSP  SETA  &WY
       MEND
