         MACRO
&NAME  GMLD  &SIZ             MAKE LINE DENSITY
         GBLA  &IHBBLC,&IHBBLIM
         IHBGAM3
&IHBBLC    SETA  &IHBBLC+2              UPDATE BUFFER-LOC COUNTER
         AIF   (&IHBBLIM GE &IHBBLC).OK
         IHBERMAC 182
.OK      AIF   (T'&SIZ EQ 'O').NOTE     DETERMINE LINE DENSITY
         AIF   ('&SIZ'(1,1) EQ 'B').BAS
         AIF   ('&SIZ'(1,1) EQ 'L').LIGHT
.NOTE    IHBERMAC  180,DENSITY,BASIC
.BAS   ANOP
&NAME  DC      H'10940'
         MEXIT
.LIGHT   ANOP
&NAME  DC      H'10941'
         MEND
