         MACRO
&NAME  GMLW  &SIZ             MAKE LINE WIDTH
         GBLA  &IHBBLC,&IHBBLIM
         IHBGAM3
&IHBBLC    SETA  &IHBBLC+2              UPDATE BUFFER-LOC COUNTER
         AIF   (&IHBBLIM GE &IHBBLC).OK
         IHBERMAC 182
.OK      AIF   (T'&SIZ EQ 'O').NOTE     DETERMINE LINE WIDTH
         AIF   ('&SIZ'(1,1) EQ 'B').BAS
         AIF   ('&SIZ'(1,1) EQ 'W').WIDE
.NOTE    IHBERMAC  180,WIDTH,BASIC
.BAS   ANOP
&NAME  DC      H'10936'
         MEXIT
.WIDE    ANOP
&NAME  DC      H'10937'
         MEND
