         MACRO
&NAME  GMSR  &A               MAKE SCAN RESPONSE
         GBLA  &IHBBLC,&IHBBLIM
         IHBGAM3
&IHBBLC    SETA  &IHBBLC+2              UPDATE BUFFER-LOC COUNTER
       AIF   (&IHBBLC LE &IHBBLIM).TEST
         IHBERMAC 182
.TEST  AIF   (T'&A EQ 'O').NOTE
         AIF   ('&A'(1,1) EQ 'N').NEGRT
         AIF   ('&A'(1,1) EQ 'P').POSRT
.NOTE    IHBERMAC  180,RESPONSE,NEGATIVE
.NEGRT ANOP
&NAME  DC      H'10928'
       MEXIT
.POSRT ANOP
&NAME  DC      H'10929'
       MEND
