         MACRO
&NAME  GRDA
&NAME    IHBGAM2 10913
         MEND
