         MACRO
&NAME  GRDB
&NAME    IHBGAM2 10914
         MEND
