         MACRO
&NAME  GRDE
&NAME    IHBGAM2 10912
         MEND
