         MACRO
&NAME  GRDS
&NAME    IHBGAM2 10915
         MEND
