         MACRO
&NAME    GSCW  &ADDR,&GROUP
&NAME    IHBGAM1 10984,&ADDR,&GROUP
         MEND
