         MACRO
&NAME    GSIC  &ADDR,&GROUP
&NAME    IHBGAM1 10985,&ADDR,&GROUP
         MEND
