         MACRO
&NAME    GTNS  &ADDR,&GROUP
&NAME    IHBGAM1 11000,&ADDR,&GROUP
         MEND
