         MACRO
&NAME    GTNZ  &ADDR,&GROUP
&NAME    IHBGAM1 11002,&ADDR,&GROUP
         MEND
