         MACRO
&NAME    GTOS  &ADDR,&GROUP
&NAME    IHBGAM1 11001,&ADDR,&GROUP
         MEND
