         MACRO
&NAME  GTR1  &A0,&A1          TRANSFER ON RESPONSE 1BIT
         GBLA  &IHBBLC,&IHBBLIM,&IHBBLP
         GBLC  &IHBINIT
         IHBGAM3
&IHBBLC    SETA  &IHBBLC+6              UPDATE BUFFER-LOC COUNTER
       AIF   (&IHBBLC LE &IHBBLIM).PROC
         IHBERMAC 182
.PROC  ANOP
&NAME  DC      H'10993'
.TESA0   AIF   (T'&A0 EQ 'O').NOA0
         AIF   ('&A0'(1,1) EQ '+' OR '&A0'(1,1) EQ '-').NOA0
         AIF   (T'&A0 NE 'N').SYMA0
         AIF   (&A0 GT 32767).NOA0
         DC    H'&A0'
.TESA1   AIF   (T'&A1 EQ 'O').NOA1
         AIF   ('&A1'(1,1) EQ '+' OR '&A1'(1,1) EQ '-').NOA1
         AIF   (T'&A1 NE 'N').SYMA1
         AIF   (&A1 GT 32767).NOA1
         DC    H'&A1'
       MEXIT
.NOA0    IHBERMAC  180,A0,0
         DC    X'0000'
       AGO   .TESA1
.NOA1    IHBERMAC  180,A1,0
         DC    X'0000'
         MEXIT
.SYMA0   DC    AL2(&A0-&IHBINIT+&IHBBLP)
         AGO   .TESA1
.SYMA1   DC    AL2(&A1-&IHBINIT+&IHBBLP)
       MEND
