         MACRO
&NAME  GTR2  &A0,&A1,&A2,&A3
         GBLA  &IHBBLC,&IHBBLIM,&IHBBLP
         GBLC  &IHBINIT
         IHBGAM3
&IHBBLC    SETA  &IHBBLC+10             UPDATE BUFFER-LOC COUNTER
       AIF     (&IHBBLC LE &IHBBLIM).PROC
         IHBERMAC 182
.PROC  ANOP
&NAME  DC      H'10994'
.TESA0   AIF   (T'&A0 EQ 'O').NOA0
         AIF   ('&A0'(1,1) EQ '+' OR '&A0'(1,1) EQ '-').NOA0
         AIF   (T'&A0 NE 'N').SYMA0
         AIF   (&A0 GT 32767).NOA0
         DC    H'&A0'
.TESA1   AIF   (T'&A1 EQ 'O').NOA1
         AIF   ('&A1'(1,1) EQ '+' OR '&A1'(1,1) EQ '-').NOA1
         AIF   (T'&A1 NE 'N').SYMA1
         AIF   (&A1 GT 32767).NOA1
         DC    H'&A1'
.TESA2   AIF   (T'&A2 EQ 'O').NOA2
         AIF   ('&A2'(1,1) EQ '+' OR '&A2'(1,1) EQ '-').NOA2
         AIF   (T'&A2 NE 'N').SYMA2
         AIF   (&A2 GT 32767).NOA2
         DC    H'&A2'
.TESA3   AIF   (T'&A3 EQ 'O').NOA3
         AIF   ('&A3'(1,1) EQ '+' OR '&A3'(1,1) EQ '-').NOA3
         AIF   (T'&A3 NE 'N').SYMA3
         AIF   (&A3 GT 32767).NOA3
         DC    H'&A3'
       MEXIT
.NOA0    IHBERMAC  180,A0,0
         DC    X'0000'
       AGO   .TESA1
.NOA1    IHBERMAC  180,A1,0
         DC    X'0000'
       AGO     .TESA2
.NOA2    IHBERMAC  180,A2,0
         DC    X'0000'
       AGO     .TESA3
.NOA3    IHBERMAC  180,A3,0
         DC    X'0000'
         MEXIT
.SYMA0   DC    AL2(&A0-&IHBINIT+&IHBBLP)
         AGO   .TESA1
.SYMA1   DC    AL2(&A1-&IHBINIT+&IHBBLP)
         AGO   .TESA2
.SYMA2   DC    AL2(&A2-&IHBINIT+&IHBBLP)
         AGO   .TESA3
.SYMA3   DC    AL2(&A3-&IHBINIT+&IHBBLP)
       MEND
