         MACRO
&NAME  GTR3    &A0,&A1,&A2,&A3,&A4,&A5,&A6,&A7
         GBLA  &IHBBLC,&IHBBLIM,&IHBBLP
         GBLC  &IHBINIT
         IHBGAM3
&IHBBLC    SETA  &IHBBLC+18             UPDATE BUFFER-LOC COUNTER
       AIF     (&IHBBLC LE &IHBBLIM).PROC
         IHBERMAC 182
.PROC  ANOP
&NAME  DC      H'10995'
.TESA0   AIF   (T'&A0 EQ 'O').NOA0
         AIF   ('&A0'(1,1) EQ '+' OR '&A0'(1,1) EQ '-').NOA0
         AIF   (T'&A0 NE 'N').SYMA0
         AIF   (&A0 GT 32767).NOA0
         DC    H'&A0'
.TESA1   AIF   (T'&A1 EQ 'O').NOA1
         AIF   ('&A1'(1,1) EQ '+' OR '&A1'(1,1) EQ '-').NOA1
         AIF   (T'&A1 NE 'N').SYMA1
         AIF   (&A1 GT 32767).NOA1
         DC    H'&A1'
.TESA2   AIF   (T'&A2 EQ 'O').NOA2
         AIF   ('&A2'(1,1) EQ '+' OR '&A2'(1,1) EQ '-').NOA2
         AIF   (T'&A2 NE 'N').SYMA2
         AIF   (&A2 GT 32767).NOA2
         DC    H'&A2'
.TESA3   AIF   (T'&A3 EQ 'O').NOA3
         AIF   ('&A3'(1,1) EQ '+' OR '&A3'(1,1) EQ '-').NOA3
         AIF   (T'&A3 NE 'N').SYMA3
         AIF   (&A3 GT 32767).NOA3
         DC    H'&A3'
.TESA4   AIF   (T'&A4 EQ 'O').NOA4
         AIF   ('&A4'(1,1) EQ '+' OR '&A4'(1,1) EQ '-').NOA4
         AIF   (T'&A4 NE 'N').SYMA4
         AIF   (&A4 GT 32767).NOA4
         DC    H'&A4'
.TESA5   AIF   (T'&A5 EQ 'O').NOA5
         AIF   ('&A5'(1,1) EQ '+' OR '&A5'(1,1) EQ '-').NOA5
         AIF   (T'&A5 NE 'N').SYMA5
         AIF   (&A5 GT 32767).NOA5
         DC    H'&A5'
.TESA6   AIF   (T'&A6 EQ 'O').NOA6
         AIF   ('&A6'(1,1) EQ '+' OR '&A6'(1,1) EQ '-').NOA6
         AIF   (T'&A6 NE 'N').SYMA6
         AIF   (&A6 GT 32767).NOA6
         DC    H'&A6'
.TESA7   AIF   (T'&A7 EQ 'O').NOA7
         AIF   ('&A7'(1,1) EQ '+' OR '&A7'(1,1) EQ '-').NOA7
         AIF   (T'&A7 NE 'N').SYMA7
         AIF   (&A7 GT 32767).NOA7
         DC    H'&A7'
       MEXIT
.NOA0    IHBERMAC  180,A0,0
         DC    X'0000'
       AGO   .TESA1
.NOA1    IHBERMAC  180,A1,0
         DC    X'0000'
       AGO     .TESA2
.NOA2    IHBERMAC  180,A2,0
         DC    X'0000'
       AGO     .TESA3
.NOA3    IHBERMAC  180,A3,0
         DC    X'0000'
       AGO     .TESA4
.NOA4    IHBERMAC  180,A4,0
         DC    X'0000'
       AGO     .TESA5
.NOA5    IHBERMAC  180,A5,0
         DC    X'0000'
       AGO     .TESA6
.NOA6    IHBERMAC  180,A6,0
         DC    X'0000'
       AGO     .TESA7
.NOA7    IHBERMAC  180,A7,0
         DC    X'0000'
         MEXIT
.SYMA0   DC    AL2(&A0-&IHBINIT+&IHBBLP)
         AGO   .TESA1
.SYMA1   DC    AL2(&A1-&IHBINIT+&IHBBLP)
         AGO   .TESA2
.SYMA2   DC    AL2(&A2-&IHBINIT+&IHBBLP)
         AGO   .TESA3
.SYMA3   DC    AL2(&A3-&IHBINIT+&IHBBLP)
         AGO   .TESA4
.SYMA4   DC    AL2(&A4-&IHBINIT+&IHBBLP)
         AGO   .TESA5
.SYMA5   DC    AL2(&A5-&IHBINIT+&IHBBLP)
         AGO   .TESA6
.SYMA6   DC    AL2(&A6-&IHBINIT+&IHBBLP)
         AGO   .TESA7
.SYMA7   DC    AL2(&A7-&IHBINIT+&IHBBLP)
       MEND
