         MACRO
&NAME  GTR4    &A0,&A1,&A2,&A3,&A4,&A5,&A6,&A7,                        *
               &A8,&A9,&A10,&A11,&A12,&A13,&A14,&A15
         GBLA  &IHBBLC,&IHBBLIM,&IHBBLP
         GBLC  &IHBINIT
         IHBGAM3
&IHBBLC    SETA  &IHBBLC+36             UPDATE BUFFER-LOC COUNTER
       AIF     (&IHBBLC LE &IHBBLIM).PROC
         IHBERMAC 182
.PROC  ANOP
&NAME  DC      H'10996'
.TESA0   AIF   (T'&A0 EQ 'O').NOA0
         AIF   ('&A0'(1,1) EQ '+' OR '&A0'(1,1) EQ '-').NOA0
         AIF   (T'&A0 NE 'N').SYMA0
         AIF   (&A0 GT 32767).NOA0
         DC    H'&A0'
.TESA1   AIF   (T'&A1 EQ 'O').NOA1
         AIF   ('&A1'(1,1) EQ '+' OR '&A1'(1,1) EQ '-').NOA1
         AIF   (T'&A1 NE 'N').SYMA1
         AIF   (&A1 GT 32767).NOA1
         DC    H'&A1'
.TESA2   AIF   (T'&A2 EQ 'O').NOA2
         AIF   ('&A2'(1,1) EQ '+' OR '&A2'(1,1) EQ '-').NOA2
         AIF   (T'&A2 NE 'N').SYMA2
         AIF   (&A2 GT 32767).NOA2
         DC    H'&A2'
.TESA3   AIF   (T'&A3 EQ 'O').NOA3
         AIF   ('&A3'(1,1) EQ '+' OR '&A3'(1,1) EQ '-').NOA3
         AIF   (T'&A3 NE 'N').SYMA3
         AIF   (&A3 GT 32767).NOA3
         DC    H'&A3'
.TESA4   AIF   (T'&A4 EQ 'O').NOA4
         AIF   ('&A4'(1,1) EQ '+' OR '&A4'(1,1) EQ '-').NOA4
         AIF   (T'&A4 NE 'N').SYMA4
         AIF   (&A4 GT 32767).NOA4
         DC    H'&A4'
.TESA5   AIF   (T'&A5 EQ 'O').NOA5
         AIF   ('&A5'(1,1) EQ '+' OR '&A5'(1,1) EQ '-').NOA5
         AIF   (T'&A5 NE 'N').SYMA5
         AIF   (&A5 GT 32767).NOA5
         DC    H'&A5'
.TESA6   AIF   (T'&A6 EQ 'O').NOA6
         AIF   ('&A6'(1,1) EQ '+' OR '&A6'(1,1) EQ '-').NOA6
         AIF   (T'&A6 NE 'N').SYMA6
         AIF   (&A6 GT 32767).NOA6
         DC    H'&A6'
.TESA7   AIF   (T'&A7 EQ 'O').NOA7
         AIF   ('&A7'(1,1) EQ '+' OR '&A7'(1,1) EQ '-').NOA7
         AIF   (T'&A7 NE 'N').SYMA7
         AIF   (&A7 GT 32767).NOA7
         DC    H'&A7'
.TESA8   AIF   (T'&A8 EQ 'O').NOA8
         AIF   ('&A8'(1,1) EQ '+' OR '&A8'(1,1) EQ '-').NOA8
         AIF   (T'&A8 NE 'N').SYMA8
         AIF   (&A8 GT 32767).NOA8
         DC    H'&A8'
.TESA9   AIF   (T'&A9 EQ 'O').NOA9
         AIF   ('&A9'(1,1) EQ '+' OR '&A9'(1,1) EQ '-').NOA9
         AIF   (T'&A9 NE 'N').SYMA9
         AIF   (&A9 GT 32767).NOA9
         DC    H'&A9'
.TESA10  AIF   (T'&A10 EQ 'O').NOA10
         AIF   ('&A10'(1,1) EQ '+' OR '&A10'(1,1) EQ '-').NOA10
         AIF   (T'&A10 NE 'N').SYMA10
         AIF   (&A10 GT 32767).NOA10
         DC    H'&A10'
.TESA11  AIF   (T'&A11 EQ 'O').NOA11
         AIF   ('&A11'(1,1) EQ '+' OR '&A11'(1,1) EQ '-').NOA11
         AIF   (T'&A11 NE 'N').SYMA11
         AIF   (&A11 GT 32767).NOA11
         DC    H'&A11'
.TESA12  AIF   (T'&A12 EQ 'O').NOA12
         AIF   ('&A12'(1,1) EQ '+' OR '&A12'(1,1) EQ '-').NOA12
         AIF   (T'&A12 NE 'N').SYMA12
         AIF   (&A12 GT 32767).NOA12
         DC    H'&A12'
.TESA13  AIF   (T'&A13 EQ 'O').NOA13
         AIF   ('&A13'(1,1) EQ '+' OR '&A13'(1,1) EQ '-').NOA13
         AIF   (T'&A13 NE 'N').SYMA13
         AIF   (&A13 GT 32767).NOA13
         DC    H'&A13'
.TESA14  AIF   (T'&A14 EQ 'O').NOA14
         AIF   ('&A14'(1,1) EQ '+' OR '&A14'(1,1) EQ '-').NOA14
         AIF   (T'&A14 NE 'N').SYMA14
         AIF   (&A14 GT 32767).NOA14
         DC    H'&A14'
.TESA15  AIF   (T'&A15 EQ 'O').NOA15
         AIF   ('&A15'(1,1) EQ '+' OR '&A15'(1,1) EQ '-').NOA15
         AIF   (T'&A15 NE 'N').SYMA15
         AIF   (&A15 GT 32767).NOA15
         DC    H'&A15'
       MEXIT
.NOA0    IHBERMAC  180,A0,0
         DC    X'0000'
       AGO   .TESA1
.NOA1    IHBERMAC  180,A1,0
         DC    X'0000'
       AGO     .TESA2
.NOA2    IHBERMAC  180,A2,0
         DC    X'0000'
       AGO     .TESA3
.NOA3    IHBERMAC  180,A3,0
         DC    X'0000'
       AGO     .TESA4
.NOA4    IHBERMAC  180,A4,0
         DC    X'0000'
       AGO     .TESA5
.NOA5    IHBERMAC  180,A5,0
         DC    X'0000'
       AGO     .TESA6
.NOA6    IHBERMAC  180,A6,0
         DC    X'0000'
       AGO     .TESA7
.NOA7    IHBERMAC  180,A7,0
         DC    X'0000'
       AGO     .TESA8
.NOA8    IHBERMAC  180,A8,0
         DC    X'0000'
       AGO     .TESA9
.NOA9    IHBERMAC  180,A5,0
         DC    X'0000'
       AGO     .TESA10
.NOA10   IHBERMAC  180,A10,0
         DC    X'0000'
       AGO     .TESA11
.NOA11   IHBERMAC  180,A11,0
         DC    X'0000'
       AGO     .TESA12
.NOA12   IHBERMAC  180,A12,0
         DC    X'0000'
       AGO     .TESA13
.NOA13   IHBERMAC  180,A13,0
         DC    X'0000'
       AGO     .TESA14
.NOA14   IHBERMAC  180,A14,0
         DC    X'0000'
       AGO     .TESA15
.NOA15   IHBERMAC  180,A15,0
         DC    X'0000'
         MEXIT
.SYMA0   DC    AL2(&A0-&IHBINIT+&IHBBLP)
         AGO   .TESA1
.SYMA1   DC    AL2(&A1-&IHBINIT+&IHBBLP)
         AGO   .TESA2
.SYMA2   DC    AL2(&A2-&IHBINIT+&IHBBLP)
         AGO   .TESA3
.SYMA3   DC    AL2(&A3-&IHBINIT+&IHBBLP)
         AGO   .TESA4
.SYMA4   DC    AL2(&A4-&IHBINIT+&IHBBLP)
         AGO   .TESA5
.SYMA5   DC    AL2(&A5-&IHBINIT+&IHBBLP)
         AGO   .TESA6
.SYMA6   DC    AL2(&A6-&IHBINIT+&IHBBLP)
         AGO   .TESA7
.SYMA7   DC    AL2(&A7-&IHBINIT+&IHBBLP)
         AGO   .TESA8
.SYMA8   DC    AL2(&A8-&IHBINIT+&IHBBLP)
         AGO   .TESA9
.SYMA9   DC    AL2(&A9-&IHBINIT+&IHBBLP)
         AGO   .TESA10
.SYMA10  DC    AL2(&A10-&IHBINIT+&IHBBLP)
         AGO   .TESA11
.SYMA11  DC    AL2(&A11-&IHBINIT+&IHBBLP)
         AGO   .TESA12
.SYMA12  DC    AL2(&A12-&IHBINIT+&IHBBLP)
         AGO   .TESA13
.SYMA13  DC    AL2(&A13-&IHBINIT+&IHBBLP)
         AGO   .TESA14
.SYMA14  DC    AL2(&A14-&IHBINIT+&IHBBLP)
         AGO   .TESA15
.SYMA15  DC    AL2(&A15-&IHBINIT+&IHBBLP)
       MEND
