         MACRO
&NAME    GTSL  &ADDR,&GROUP
&NAME    IHBGAM1 11006,&ADDR,&GROUP
         MEND
