         MACRO
&NAME    GTZE  &ADDR,&GROUP
&NAME    IHBGAM1 11003,&ADDR,&GROUP
         MEND
