         MACRO                                                    20002
&NAME    IOHALT  &UCB,&TP                                         20002
         AIF   ('&UCB' EQ '').E1                                  20002
&NAME    IHBINNRA  &UCB                                           20002
         AIF   ('&TP' EQ '').SVC                                  20002
         AIF   ('&TP' NE 'TCAM').E2                               20002
         LA    1,0(1)                   CLEAR HIGH ORDER BYTE     20002
         LCR   1,1                      COMPLEMENT REGISTER       20002
.SVC     SVC   33                                                 20002
         MEXIT                                                    20002
.E1      IHBERMAC  1                                              20002
         MEXIT                                                    20002
.E2      IHBERMAC  37                                             20002
         MEND                                                     20002
