         MACRO
&NAME    POINT &DCB,&LOC,&DUMMY=
         LCLB  &NOGO
         AIF   ('&DCB' EQ '').ERR1
.R1      AIF   ('&LOC' EQ '').ERR2
         AIF   (&NOGO EQ 1).TERM
&NAME    IHBINNRA &DCB,&LOC
         L     15,84(0,1)                        LOAD POINT RTN ADDRESS
         BAL   14,4(15,0)                        LINK TO POINT ROUTINE
         MEXIT
.ERR1    IHBERMAC 6
&NOGO    SETB  1
         AGO   .R1
.ERR2    IHBERMAC 3
.TERM    MEND
