         MACRO
&NAME    POLLIMIT &PAR1
         LCLA  &CNT
         LCLB  &NOGO
         LCLC  &TEMP
.SEQOK   AIF   ('&PAR1' NE '').OK
         MNOTE 12,'***  IHB001  LIMIT OPERAND REQ''D-NOT SPECIFIED'
         MEXIT
.OK      AIF   ('&PAR1'(1,1) LT '0').SKIP
&TEMP    SETC  '&PAR1'
&CNT     SETA  &TEMP
         AIF   (&CNT GT 255).ER
&NAME    LA    1,&PAR1                 LOAD LIMIT COUNT
         AGO   .LOAD
.SKIP    ANOP
&NAME    SR    1,1
         IC    1,&PAR1                 LOAD LIMIT PARAMETER
.LOAD    L     15,=V(IECKPLMT)         ADDRESS OF POLL LIMIT ROUTINE
         BALR  14,15                   LINK TO THE ROUTINE
         AGO   .END
.ER     MNOTE 12,'***  IHB002  INVALID LIMIT OPERAND SPECIFIED'
.END     MEND
