         MACRO
&NAME    POSTSEND
         GBLB  &SW,&RCV,&SEN,&RHDR,&SHDR
         GBLB  &WRUHDR,&WRUEND,&BWTTA                              000C
         GBLC  &WRUFLG                                             000C
         GBLC  &SEND,&TEXT,&MGTP
.*2719100000-110000,727000-741000                                  000C
         AIF   ('&NAME' EQ '').NONAME
&NAME    DS    0H
.NONAME  AIF   (&SEN AND NOT &RCV).OK
         MNOTE 12,'***  IHB071  SEQUENCE ERROR IN LPS DELIMETER MACRO'
.OK      AIF   (&SW).NOFS
         AIF   ('&MGTP' EQ 'E').COMM
         AIF   ('&TEXT' EQ '' OR '&MGTP' EQ '').NOEQU
&MGTP    EQU   *
.NOEQU   ANOP
&TEXT    L     15,0(13)            ADDRESS OF LPS QUEUE IN IGG019NG
         B     236(15)             ACTIVATE ROUTINE IN IGG019NG
&SEND    L     15,0(13)            ADDRESS OF LPS QUEUE IN IGG019NG
         AGO   .ACT
.NOFS    ANOP
&SEND    L     15,0(13)            ADDRESS OF LPS QUEUE IN IGG019NG
         TM    12(6),X'10'         WAS MESSAGE PREVIOUSLY SERVICED
         BZ    236(15)             TO ACTIVATE ROUTINE IF NOT
         AGO   .ACT
.COMM    L     15,0(13)            ADDRESS OF LPS QUEUE IN IGG019NG
.ACT     B     312(15)             BUFFER CLEANUP ROUTINE
         AIF   (NOT &BWTTA).NOTWT                                  000C
&WRUFLG  EQU   16*&WRUHDR+8*&WRUEND                                000C
.NOTWT   ANOP                                                      000C
         LTORG
&SEN     SETB  0
&RHDR    SETB  0
&SHDR    SETB  0
&TEXT    SETC  ''
&MGTP    SETC  'P'
         MEND
