         MACRO
&NAME    PROCESS &PAR
         GBLA  &QNAME,&TSIZE
         GBLC  &SECT
         AIF   ('&NAME' NE '').OK
         MNOTE 12,'***  IHB001  ENTRY OPERAND REQ''D-NOT SPECIFIED'
         MEXIT
.OK      AIF   (K'&NAME LE &TSIZE).OK2
         MNOTE 12,'***  IHB002  INVALID ENTRY OPERAND SPECIFIED'
         MEXIT
.OK2     ANOP
IECKQUE  CSECT
&QNAME   SETA  &QNAME+1
IHB&SYSNDX DC  AL1(3)                  QKEY
         DC    AL3(&QNAME)         QUEUE NUMBER AND QSTART
         DC    A(0)               QLINK
         AIF   ('&PAR' EQ 'EXPEDITE').EX
         DC    3A(0)              FILLER
         AGO   .EXCOM
.EX      DC    2A(0)              FILLER
         DC    A(1)                EXPEDITE FLAG
.EXCOM   DC    H'0'                QSIZE
         DC    AL3(&QNAME)         QNASEG
         DC    AL3(IHB&SYSNDX.+1)      QSOURCE
         DC    A(0)                QBACK
&SECT    CSECT
&NAME    DC    AL1(IHB&SYSNDX.A-&NAME) TNTRYSZE
         DC    AL3(IHB&SYSNDX)         TQCBADDR FOR PROCESS PROGRAM
         DC    X'0001000100'      SEQIN , SEQOUT , STATUS
         DC    CL&TSIZE'&NAME'         PROCESS ENTRY IDENTIFICATION
IHB&SYSNDX.A DS 0F
         MEND
