         MACRO
&NAME    PUT   &DCB,&AREA,&DUMMY=
         AIF   ('&DCB' EQ '').ERR
&NAME    IHBINNRA &DCB,&AREA
         L     15,48(0,1)                        LOAD PUT ROUTINE ADDR.
         BALR  14,15                             LINK TO PUT ROUTINE
         MEXIT
.ERR     IHBERMAC 6
         MEND
