         MACRO
&NAME    RCVHDR
         GBLB  &SW,&RCV,&SEN,&RHDR,&SHDR
         GBLC  &SEND,&TEXT,&MGTP
         AIF   ('&NAME' EQ '').NONAME
&NAME    DS    0H
.NONAME  AIF   (&RCV AND NOT &SEN).OK
         MNOTE 12,'***  IHB071  SEQUENCE ERROR IN LPS DELIMITER MACRO'
.OK      AIF   ('&TEXT' EQ '' OR '&MGTP' EQ '').NOEQU
&MGTP    EQU   *
&MGTP    SETC  ''
.NOEQU   ANOP
&TEXT    TM    12(6),X'21'             TEST FOR TEXT SEGMENT
&TEXT    SETC  'IHB'.'&SYSNDX'
         BC    7,&TEXT                 BRANCH IF TEXT SEGMENT
&RHDR    SETB  1
&SHDR    SETB  0
         MEND
