         MACRO
&NAME    RCVSEG
         GBLB  &SW,&RCV,&SEN,&RHDR,&SHDR
         GBLC  &SEND,&TEXT,&MGTP
.* 440000,560000                                                 A26022
         AIF   ('&NAME' EQ '').NONAME
&NAME    DS    0H
.NONAME  AIF   (&RCV AND NOT &SEN).OK
         MNOTE 12,'***  IHB071  SEQUENCE ERROR IN LPS DELIMITER MACRO'
.OK      AIF   ('&TEXT' EQ '').NOTX
         AIF   ('&MGTP' EQ '').NOTP
&MGTP    DS    0H                                                A26022
&MGTP    SETC  ''
.NOTP    ANOP
&TEXT    DS    0H
&TEXT    SETC  ''
.NOTX    ANOP
&RHDR    SETB  0
&SHDR    SETB  0
.GN      MEND
