         MACRO
&NAME    SENDSEG
         GBLB  &SW,&RCV,&SEN,&RHDR,&SHDR
         GBLC  &SEND,&TEXT,&MGTP
.* 540000,630000                                                 A26022
         AIF   (&SEN AND NOT &RCV).OK
         MNOTE 12,'***  IHB071  SEQUENCE ERROR IN LPS DELIMITER MACRO'
.OK      AIF   ('&NAME' EQ '').NONAME
&NAME    DS    0H
.NONAME  AIF   (NOT &SW).NOFS
&SEND    TM    12(6),X'10'             IS THE MESSAGE COMPLETE
&SEND    SETC  'IHB'.'&SYSNDX'
         BC    1,&SEND                 BRANCH IF MESSAGE COMPLETE
&SW      SETB  0
&TEXT    SETC  ''
&MGTP    SETC  ''
.NOFS    AIF   ('&TEXT' EQ '').NOTX
         AIF   ('&MGTP' EQ '').NOTP
&MGTP    DS    0H                                                A26022
&MGTP    SETC  ''
.NOTP    ANOP
&TEXT    DS    0H                                                A26022
&TEXT    SETC  ''
.NOTX    ANOP
&RHDR    SETB  0
&SHDR    SETB  0
         MEND
