         MACRO
&NAME    SENDHDR
         GBLB  &SW,&RCV,&SEN,&RHDR,&SHDR
         GBLC  &SEND,&TEXT,&MGTP
         AIF   (&SEN AND NOT &RCV).OK
         MNOTE 12,'***  IHB071  SEQUENCE ERROR IN LPS DELIMITER MACRO'
.OK      AIF   ('&NAME' EQ '').NONAME
&NAME    DS    0H
.NONAME  AIF   (NOT &SW).NOFS
&SEND    TM    12(6),X'10'             TEST FOR MESSAGE COMPLETE
&SEND    SETC  'IHB'.'&SYSNDX'
&SW      SETB  0
         BC    1,&SEND                 BRANCH IF MESSAGE COMPLETE
&TEXT    SETC  ''
&MGTP    SETC  ''
.NOFS    AIF   ('&TEXT' EQ '' OR '&MGTP' EQ '').NOEQU
&MGTP    EQU   *
&MGTP    SETC  ''
.NOEQU   ANOP
&TEXT    TM    12(6),X'01'        TEST FOR TEXT SEGMENT
&TEXT    SETC  'IHB'.'&SYSNDX'.'A'
         BC    7,&TEXT                 BRANCH IF TEXT SEGMENT
&RHDR    SETB  0
&SHDR    SETB  1
         MEND
