         MACRO
&NAME    SEQIN &PAR1
         GBLB  &RHDR
         LCLB  &NOGO
         AIF   (&RHDR).VAL
         MNOTE 12,'***  IHB070  SEQUENCE ERROR-MUST FOLLOW RCVHDR MACROX
               '
&NOGO    SETB  1
.VAL     AIF   ('&PAR1' EQ '').SKIP
         AIF   ('&PAR1' GT '0' AND '&PAR1' LT '5').SKIP
         MNOTE 12,'***  IHB002  INVALID VALUE OPERAND SPECIFIED'
         MEXIT
.SKIP    AIF   (&NOGO).END
&NAME    L     15,=V(IECKSEQN)         ADDRESS OF SEQUENCE NUMBR. RT.
         BALR  14,15                   LINK TO ROUTINE
         AIF   ('&PAR1' EQ '').BL
         DC    XL2'&PAR1'          HEADER FIELD SIZE
         AGO   .END
.BL      DC    X'FFFF'             ALL ONES
.END     MEND
