         MACRO
&NAME    SEQOUT &PAR1
         GBLB  &SHDR,&RHDR
         LCLB  &NOGO
         AIF   (&SHDR OR &RHDR).VAL
         MNOTE 12,'***  IHB070  SEQUENCE ERROR-MUST FOLLOW RCVHDR OR SEX
               NDHDR MACRO'
&NOGO    SETB  1
.VAL     AIF   ('&PAR1' NE '').THERE
         MNOTE 12,'***  IHB001  VALUE OPERAND REQ''D-NOT SPECIFIED'
         MEXIT
.THERE   AIF   ('&PAR1' GT '0' AND '&PAR1' LT '6').GD
         MNOTE 12,'***  IHB002  INVALID VALUE OPERAND SPECIFIED'
         MEXIT
.GD      AIF   (&NOGO).END
&NAME    L     15,=V(IECKSEQT)         ADDRESS OF SEQUENCE OUT ROUTINE
         BALR  14,15                   LINK TO SEQUENCE OUT ROUTINE
         DC    XL2'&PAR1'          HEADER FIELD SIZE
.END     MEND
