         MACRO
&NAME    SOURCE &PAR1
         AIF   ('&PAR1' EQ '').OK
         AIF   ('&PAR1' LT '1' OR '&PAR1' GT '8').ER1
.OK      ANOP
&NAME    L     15,=V(IECKSRCE)         SOURCE ROUTINE ADDRESS
         BALR  14,15                   BRANCH TO SOURCE ROUTINE
         AIF   ('&PAR1' EQ '').BL
         DC    XL2'&PAR1'          HEADER FIELD SIZE
         MEXIT
.BL      DC    2X'FF'              VARIABLE LENGTH FIELD INDICATOR
         MEXIT
.ER1     MNOTE 12,'***  IHB002  INVALID SIZE OPERAND SPECIFIED'
         MEND
