         MACRO
&NAME    TIMESTMP &PAR1
         GBLB  &RHDR,&SHDR
         LCLA  &CNT
         LCLB  &NOGO
         LCLC  &V
         AIF   (&RHDR OR &SHDR).OK
         MNOTE 12,'***  IHB070  SEQUENCE ERROR-MUST FOLLOW SENDHDR OR RX
               CVHDR MACRO'
.OK      AIF   ('&PAR1' NE '').OK1
         MNOTE 12,'***  IHB001  VALUE OPERAND REQ''D-NOT SPECIFIED'
         MEXIT
.OK1     ANOP
&V       SETC  '&PAR1'
&CNT     SETA  &V
         AIF   (&CNT GT 0 AND &CNT LT 13).VAL
         MNOTE 12,'***  IHB002  INVALID VALUE OPERAND SPECIFIED'
         MEXIT
.VAL     AIF   (&NOGO).END
&NAME    L     15,=V(IECKTIME)         ADDRESS OF TIME INSERT ROUTINE
         BALR  14,15                   LINK TO THE TIME ROUTINE
         DC    FL2'&CNT'
.END     MEND
