         MACRO
&NAME    TIME  &UNIT,&ADDR                                        20071
         LCLA  &CTR
         LCLB  &B(3)                                              20071
         AIF   (('&UNIT' EQ 'DEC' OR '&UNIT' EQ '' OR '&UNIT' EQ 'TU' O*
               R '&UNIT' EQ 'BIN') AND '&ADDR' NE '').ERR1        20071
&B(1)    SETB  ('&UNIT' EQ 'DEC' OR '&UNIT' EQ '')
&B(2)    SETB  ('&UNIT' EQ 'BIN')
&B(3)    SETB  ('&UNIT' EQ 'MIC')                                 20071
         AIF   ('&UNIT' EQ 'TU').TU
         AIF   (&B(1)+&B(2)+&B(3) NE 1).E1                        20071
&CTR     SETA  &B(2)+2*&B(1)+3*&B(3)                              20071
&NAME    LA    1,&CTR.(0,0)                      LOAD 1 TO SPECIFY UNIT
         AIF   ('&UNIT' NE 'MIC').SVC                             20071
         AIF   ('&ADDR' EQ '').ERR2                               20071
         AIF   ('&ADDR'(1,1) EQ '(').REG                          20071
         LA    0,&ADDR                                            20071
         AGO   .SVC                                               20071
.REG     ANOP                                                     20071
         AIF   ('&ADDR' EQ '(0)').SVC                             20071
         LR    0,&ADDR                                            20071
         AGO   .SVC
.TU      ANOP
&NAME    SR    1,1                               ZERO 1 TO SPECIFY UNIT
.SVC     SVC   11                                ISSUE TIME SVC
         MEXIT
.E1      IHBERMAC 36,378,&UNIT              INVALID UNIT SPECIFIED
         MEXIT                                                    20071
.ERR1    IHBERMAC  236                                            20071
         MEXIT                                                    20071
.ERR2    IHBERMAC 3                                               20071
         MEND
