         MACRO
&NAME    CARRIAGE
         GBLA  &IEDQZE(64)
         GBLB  &IEDQZA(64)
.* CHANGE ACTIVITY AS FOLLOWS
.******************* MICROFICHE FLAGS *********************** SUPT CODE
.*C640000-680000                                                SA60350
         AIF   (&IEDQZA(9)).TSO
         MNOTE 12,'***  IHB312 - MACRO MUST FOLLOW STARTMH MACRO WITH  *
                TSOMH=YES.'
         AGO   .MEND
.TSO     AIF   (&IEDQZA(1) AND NOT &IEDQZA(3) AND NOT &IEDQZA(5)).OK
         MNOTE 12,'*** IHB070 SEQUENCE ERROR-MUST FOLLOW INBUF MACRO.'
         AGO   .MEND
.OK      IEDQVCON 13,IEDAYC
.NOSEND  CNOP  0,4
&NAME    BAL   1,*+8                                            SA60350
         DC    AL1(&IEDQZE(13)),AL1(4),AL2(&IEDQZA(3))          SA60350
         L     15,IEDUI .    CARRIAGE ROUTINE
         BALR  14,15
.MEND    SPACE 2
         MEND
