         MACRO
&NAME    CATALOG &LIST,&DUMMY=
&NAME    LOCATE &LIST                   EXPAND USING LOCATE
         MEND
