         MACRO
&NAME    GDPD
&NAME    IHBGAM2 10885
         MEND
