         MACRO
&NAME    GDRD
&NAME    IHBGAM2 10883
         MEND
