         MACRO
&NAME    GEVI2
         GBLA  &IHBMOD
&NAME    IHBGAM2 10757
&IHBMOD  SETA  2
         MEND
