         MACRO
&NAME    GPDI
&NAME    IHBGAM2 10887
         MEND
