         MACRO
&NAME    GTSIZE &A                      PROTOTYPE
.**********************************************************************
.*                                                                    *
.*                                                                    *
.*RELEASE 23 DELETIONS                                                *
.*                                                                    *
.*RELEASE 22 DELETIONS                                                *
.*                                                                    *
.*RELEASE 21 DELETIONS                                                *
.*                                                                    *
.*STATUS - CHANGE LEVEL 000                                           *
.*                                                                    *
.*NAME - GTSIZE                                                       *
.*                                                                    *
.*FUNCTION - THE GTSIZE MACRO ALLOWS THE USER TO FIND OUT WHAT THE    *
.*   PRESENT LINE SIZE OF THE TERMINAL IS.                            *
.*                                                                    *
.*       THE MACRO PROTOTYPE IS ABOVE                                 *
.*                                                                    *
.*       THE STANDARD FORM OF EXPANSION IS BELOW                      *
.*                                                                    *
.*&NAME  SR    1,1                      PREPARE PARM                  *
.*       LA    0,11                     LOAD ENTRY CODE               *
.*       SLL   0,24                     PUT ENTRY CODE IN LEFT MOST   *
.*       SVC   94                       ISSUE SVC                     *
.*                                                                    *
.**********************************************************************
         AIF   ('&A' EQ '').PARMOK      IS OPERAND BLANK
.PARMBAD ANOP
         IHBERMAC 36,,&A
         MEXIT                          EXIT
.PARMOK  ANOP
&NAME    SR    1,1                      PREPARE PARM
         LA    0,11                     LOAD ENTRY CODE
         SLL   0,24                     PUT ENTRY CODE IN LEFT MOST
         SVC   94                       ISSUE SVC
         MEND
