         MACRO
&NAME    IEDOPCTL &BLANK=YES
.*A-000000-999999                                              @X31X8R0
         GBLA  &IEDQZE(64)
         GBLB  &IEDQZA(64)
.*       THIS MACRO HAS BEEN ADDED FOR VS/TCAM LEVEL 8
.*       VERSION DATED JANUARY 30, 1974
         SPACE
         AIF   (&IEDQZA(3) AND &IEDQZA(1)).OPCTL
         MNOTE 12,'***  IHB070  SEQUENCE ERROR - MUST FOLLOW INHDR MACR*
               O'
         AGO   .MEND
.OPCTL   IEDQVCON 12,IEDQAQ
         CNOP  0,4
         AIF   ('&NAME' EQ '').NON
&NAME    DS    0H
.NON     ANOP
         IEDQSCAN 255,,&BLANK
         AIF   (&IEDQZA(24)).MEND
         LTR   15,15
         BM    *+16
         LR    1,15 .                   MACRO PARM LIST ADDRESS
         L     15,IEDMSGS-1 .           OPTIONAL VCON LIST
         L     15,&IEDQZE(12)(,15) .    IEDQAQ'S VCON LIST INDEX
         BALR  14,15 .                  TEST FOR OPERATOR CONTROL
.MEND    ANOP
         SPACE 2
         MEND
