         MACRO
&NAME    IEDPSTOP &MSK,&CONNECT=OR,&CLEAR=YES,&UPDATE=ADD,&INTVL=,     X
               &COUNT=
.*A-000000-999999                                              @XA09783
.*               VERSION DATED MAY 30, 1975                    @XA09783
         GBLB  &IEDQZA(64),&IEDNO                              @YM07267
&IEDNO   SETB  0                        RESET ERROR FLAG       @YM07267
         AIF   (&IEDQZA(5)).PSOK
         MNOTE 12,'*** IHB070  SEQUENCE ERROR - MUST FOLLOW INMSG OR OUX
               TMSG MACRO'
.PSOK    ANOP
&NAME    IEDQJN &MSK,&CONNECT,&CLEAR,&UPDATE,&INTVL,&COUNT,,,P
         MEND
