         MACRO
&NAME    IKJEBEMG  &PTR,&INS,&TEXT
         LCLC  &GNAME
&GNAME   SETC  '&SYSNDX'
         AIF   (N'&PTR NE 0).TAG1
&NAME    DC    A(0) POINTER TO SECOND INSERTION RECORD
         AGO   .TAG2
.TAG1    ANOP
&NAME    DC    A(&PTR) POINTER TO SECOND INSERTION RECORD
.TAG2    ANOP
         AIF (N'&INS NE 0).TAG4
         MNOTE 4,'INSERTION POINT NOT SPECIFIED'
         AGO   .EXIT
.TAG4    ANOP
         DC    AL2(MXX&GNAME-*) LENGTH OF MESSAGE
         DC    AL2(&INS) POINTER TO INSERTION POINT
         AIF (N'&TEXT NE 0).TAG6
         MNOTE 4,'MESSAGE TEXT NOT PROVIDED'
         AGO   .EXIT
.TAG6    ANOP
         DC    C&TEXT
MXX&GNAME  EQU   *
.EXIT    ANOP
         MEND
