         MACRO
&NAME    LOGON &SCAN=12                                         SA67157
.*                                                               S22029
         GBLA  &IEDQZE(64)
         GBLB  &IEDQZA(64)
         GBLC  &IEDQZG,&IEDQZH,&IEDQZI                           S22029
         LCLA  &T,&BASE,&INDX                                    S22029
         LCLA  &IEDLNDX                                          S22029
         LCLA  &SCANO                                           SA67157
         LCLB  &NOGO                                             S22029
.*A690000                                                        S22029
.*C020000,050000-090000,110000,150000-170000,190000,520000       S22029
.*C640000,650000                                                 S22029
.*D080000,130000-140000,530000,680000                            S22029
.*A060000,630000                                                SA67157
.*C020000,644000,650000                                         SA67157
.*C690400                                                      @OZ27439
.*C160000-170000                                               @OZ36610
.*       VERSION DATED OCTOBER 8, 1973                          SA67157
.*       IEDQZG CONTAINS NAME OF LAST STARTMH MACRO
.*       &IEDQZI CONTAINS ADDR OF END OF LOGON MACRO EXPANSION   S22029
         SPACE
         AIF   (&IEDQZA(51)).SEQCHK                              S22029
         MNOTE 12,'***  IHB070  MUST FOLLOW INTRO MACRO WITH ENVIRON=TSX
               O OR MIXED'                                     @OZ36610
&NOGO    SETB  1
.SEQCHK  AIF   (&IEDQZA(3)).NOGOCHK                              S22029
         AIF   (&IEDQZA(14)).NOGOCHK                             S22029
         MNOTE 12,'*** IHB070 SEQUENCE ERROR-MUST FOLLOW INHDR OR INBLOX
               CK MACRO'                                         S22029
&NOGO    SETB  1
.NOGOCHK ANOP                                                    S22029
         AIF   (&NOGO).MEND
.VCON    IEDQVCON 35,IEDAYL
&IEDLNDX SETA   &IEDQZE(35)
.CNOP    CNOP  0,4
         IEDQMASK &SCAN,1                                       SA67157
         AIF   (&IEDQZA(24)).SCANERR                            SA67157
         AIF   ('&SCAN'(1,1) EQ 'X' OR &SCAN LT 0).SCANERR      SA67157
&SCANO   SETA  &SCAN                                            SA67157
         AGO   .SCANSET                                         SA67157
.SCANERR ANOP                                                   SA67157
         SPACE 1                                                SA67157
         MNOTE 12,'IHB303 INVALID OPERAND SCAN, 12 ASSUMED'     SA67157
&SCANO   SETA  12                                               SA67157
.SCANSET ANOP                                                   SA67157
&NAME    BAL   1,*+12 . BRANCH AROUND PARMLIST                   S22029
         AIF   (&IEDQZA(14)).INBLOCK                             S22029
         DC    AL1(&IEDLNDX),AL1(8),AL1(&SCANO),AL1(0)          SA67157
         AGO   .NOTNBLK                                          S22029
.INBLOCK ANOP                                                    S22029
         DC    AL1(&IEDLNDX),AL1(8),AL1(&SCANO),AL1(0)          SA67157
.NOTNBLK ANOP                                                    S22029
         DC    AL1(0),AL3(&IEDQZG)                               S22029
         L     15,IEDUI .                                        S22029
         BALR  14,15
&IEDQZI  SETC  'IEDL&SYSNDX'                                   @OZ27439
&IEDQZI  EQU   *   END OF THIS LOGON MACRO EXPANSION             S22029
         ORG   &IEDQZG+5                                         S22029
         DC    AL3(&IEDQZI)   ADDRESS OF END OF LOGON MACRO      S22029
         ORG   &IEDQZI                                           S22029
.* THE FOLLOWING REGENRATES ADDRESSABILITY FOR ADDITIONAL BASE   S22029
.* REGISTERS REQUESTED BY &BREG= PARAM ON STARTMH MACRO.  THIS   S22029
.* IS NECESSARY DUE TO CROSS MHANDLER SHIFT OF LOGON MSG.        S22029
         AIF   ('&IEDQZH' EQ '').NOBREGS                         S22029
&T       SETA  &IEDQZH                                           S22029
&BASE    SETA  11                                                S22029
&INDX    SETA  12                                                S22029
.LOOP    ANOP                                                    S22029
         AIF   (&T EQ 1).NOBREGS                                 S22029
         LA    &BASE,0(2,&INDX)                                  S22029
&T       SETA  &T-1                                              S22029
&BASE    SETA  &BASE-1                                           S22029
&INDX    SETA  &INDX-1                                           S22029
         AGO   .LOOP                                             S22029
.NOBREGS ANOP                                                    S22029
.MEND    SPACE 2
         MEND
