         MACRO
&NAME    QCOPY &TERMNME,&WRKAREA,&LIMIT=                         99226
.*             VERSION DATED MAY 1, 1972                         99226
.*C030000,480000-490000                                         SA51790
.*D060000-110000                                                SA51790
.*A045000,142000-146000,390000-450000                            99226
.*C020000-025000,040000,310000-360000                            99226
.*D190000-290000,370000,390000-470000                            99226
         AIF   ('&TERMNME' EQ '').ERR0                           99226
         AIF   ('&WRKAREA' EQ '').ERR0                           99226
&NAME    DS    0H
         AIF   ('&TERMNME'(1,1) EQ '(' OR K'&TERMNME LT 9).OK
         MNOTE 12,'*** IHB002 INVALID TERMNAME OPERAND SPECIFIED'
         MEXIT
.ERR0    ANOP                                                    99226
         MNOTE 12,'*** IHB004 REQUIRED OPERAND(S) NOT SPECIFIED' 99226
         MEXIT                                                   99226
.OK      ANOP
         AIF   ('&WRKAREA'(1,1) EQ '(' OR K'&WRKAREA LT 9).OK1
         MNOTE 12,'*** IHB002 INVALID WORKAREA OPERAND SPECIFIED'
         MEXIT
.OK1     ANOP
         AIF   ('&TERMNME'(1,1) NE '(').TAD                      99226
         ST    &TERMNME(1),IEDQ&SYSNDX .ADDRESS OF TERMINAL NAME 99226
*                                       INTO PARAMETER LIST      99226
         AGO   .WRK                                              99226
.TAD     ANOP                                                    99226
         BAL   1,*+12 .                 ADDRESS OF TERMINAL NAME 99226
         DC    CL8'&TERMNME' .          TERMINAL NAME
         ST    1,IEDQ&SYSNDX .          ADDRESS OF TERMINAL NAME 99226
*                                       INTO PARAMETER LIST      99226
.WRK     ANOP                                                    99226
         AIF   ('&WRKAREA'(1,1) NE '(').LIM                      99226
         ST    &WRKAREA(1),IEDQ&SYSNDX+4  ADDRESS OF WORKAREA    99226
*                                       INTO PARAMETER LIST      99226
.LIM     ANOP                                                    99226
         AIF   ('&LIMIT' EQ '').LIST                             99226
         AIF   ('&LIMIT'(1,1) EQ '(').OK2A                       99226
         AIF   ('&LIMIT' GE '1' OR '&LIMIT' LE '4095').OK2       99226
         MNOTE 12,'*** IHB002 INVALID LIMIT OPERAND SPECIFIED'   99226
         MEXIT                                                   99226
.OK2     ANOP                                                    99226
         LA    0,&LIMIT .                                        99226
         ST    0,IEDQ&SYSNDX+8 .                                 99226
         AGO   .LIST                                             99226
.OK2A    ANOP                                                    99226
         LR    0,&LIMIT(1) .                                     99226
         ST    0,IEDQ&SYSNDX+8 .                                 99226
.LIST    ANOP                                                    99226
         CNOP  0,4                                               99226
         BAL   1,*+16 .                 ADDR OF PARAMETER LIST   99226
IEDQ&SYSNDX DS 0F .                                              99226
         DC    A(0) .                   ADDRESS OF TERMINAL NAME 99226
         AIF   ('&WRKAREA'(1,1) NE '(').OK3                      99226
         DC    A(0) .                   ADDRESS OF WORKAREA      99226
         AGO   .OK4                                              99226
.OK3     ANOP                                                    99226
         DC    A(&WRKAREA) .            ADDRESS OF WORKAREA      99226
.OK4     ANOP                                                    99226
         DC    A(0) .                   AMOUNT OF LIMIT          99226
         LINK  EP=IEDQE2                                        SA51790
         MEND
