         MACRO
&NAME    STAUTOCP &A
.**********************************************************************
.*                                                                    *
.*                                                                    *
.*RELEASE 23 DELETIONS                                                *
.*                                                                    *
.*RELEASE 22 DELETIONS                                                *
.*                                                                    *
.*RELEASE 21 DELETIONS                                                *
.*                                                                    *
.*STATUS - CHANGE LEVEL 000                                           *
.*                                                                    *
.*NAME - STAUTOCP                                                     *
.*                                                                    *
.*FUNCTION - THIS MACRO GIVES THE USER THE ABILITY TO REQUEST AUTO-   *
.*   MATIC CHARACTER PROMPT.                                          *
.*                                                                    *
.*       THE MACRO PROTOTYPE IS ABOVE                                 *
.*                                                                    *
.*       THE STANDARD FORM OF THE EXPANSION IS BELOW                  *
.*                                                                    *
.*       CNOP  0,4                                                    *
.*&NAME  SR    1,1                      PREPARE PARM                  *
.*       LA    0,12                     LOAD ENTRY CODE               *
.*       SVC   94                       ISSUE SVC                     *
.*                                                                    *
.**********************************************************************
         AIF   ('&A' NE '').ERROR
         CNOP  0,4
&NAME    SR    1,1                      PREPARE PARM
         LA    0,12                     LOAD ENTRY CODE
         SLL   0,24                     PUT ENTRY CODE IN LEFT MOST
*                                       BYTE OF REGISTER
         SVC   94                       ISSUE SVC
         MEXIT
.ERROR   ANOP
         IHBERMAC 36,,&A
         MEXIT
         MEND
