         MACRO
&NAME    STCOM &A                       PROTOTYPE
.**********************************************************************
.*                                                                    *
.*RELEASE 23 DELETIONS                                                *
.*                                                                    *
.*RELEASE 22 DELETIONS                                                *
.*                                                                    *
.*RELEASE 21 DELETIONS                                                *
.*                                                                    *
.*STATUS - CHANGE LEVEL 000                                           *
.*                                                                    *
.*NAME - STCOM                                                        *
.*                                                                    *
.*FUNCTION - THE STCOM MACRO IS USED TO SPECIFY WHETHER OR NOT THE    *
.*   USER WISHES TO RECEIVE INTER-TERMINAL COMMUNICATIONS.            *
.*                                                                    *
.*                                                                    *
.*       THE MACRO PROTOTYPE IS ABOVE                                 *
.*                                                                    *
.*       THE STANDARD FORM OF THE EXPANSION IS BELOW                  *
.*                                                                    *
.*&NAME  LA    1,128                    LOAD FLAG BYTE                *
.*       SLL   0,24                     PUT ENTRY CODE IN LEFT MOST   *
.*                                      BYTE OF REGISTER              *
.*       LA    0,5                      LOAD ENTRY CODE               *
.*       SLL   0,24                     PUT ENTRY CODE IN LEFT MOST   *
.*       SVC   94                       ISSUE SVC                     *
.*                                                                    *
.**********************************************************************
         AIF   ('&A' EQ 'YES' OR '&A' EQ '').COM
         AIF   ('&A' EQ 'NO').NOCOM
.ERROR   IHBERMAC 36,,&A
         MEXIT                          EXIT
.COM     ANOP
&NAME    LA    1,128                    LOAD FLAG BYTE
         SLL   1,24                     PUT ABOVE IN LEFT MOST OF REG
         AGO   .ENTRYCD                 GO TO ENTRYCD
.NOCOM   ANOP
&NAME    SR    1,1                      PREPARE PARM
.ENTRYCD LA    0,5                      LOAD ENTRY CODE
         SLL   0,24                     PUT ENTRY CODE IN LEFT MOST
.*                                      BYTE OF REGISTER
         SVC   94                       ISSUE SVC
         MEND
