         MACRO
&NAME    TERMINAL  &QBY=,&DCB=,&RLN=,&COMP=NO,&TERM=,&QUEUES=,         X
               &ADDR=,&LEVEL=(0),&CLOCK=,&ALIAS=,&ALTDEST=,&SECTERM=NO,X
               &BUFSIZE=,&BFDELAY=,&OPDATA=,                           X
               &QS=(DN,DR,TS,MO,MR,MN,34,18,2,66,82,98),&FEATURE=,     X
               &TBLKSZ=,&DIALNO=,&NTBLKSZ=,&CINTVL=,&UTERM=NO,         X
               &DVCID=,&QCNTRL=,&LMD=NO,&CTBMAX=,&MB=NO,               X
               &SCRSIZE=(12,40),&GROUP=,&RETRY=,&ACTIVE=,        Y06327X
               &SPECOUT=,&GPCLSTR=,&TCMSESN=,&USS=NONE,&FMPROF=,       *
               &TSPROF=,&BKUPNME=,&IPLTXID=,&IPLAUTO=NO,&DUMPDCB=,     *
               &DMPAUTO=NO,&BACKUP=NO,&BRINGUP=NO,&CKPTDCB=    @Y17XAFF
.*A000000-999999                                               @X31X8F0
.*C244680                                                      @OY16095
.*
         GBLA  &IEDQCH(128),&IEDQAR(64),&IEDQZF
         GBLA  &IEDQCH1(128),&IEDQRL                           @Y17XAFF
         GBLB  &IEDQFL(16),&IEDQZA(64),&IEDQNO,&IEDQIHB(2),&IEDQZZ(16)
         GBLB  &IEDQRN(8),&IEDQCOD(8)                          @Y17XAFF
         GBLB  &IEDQQEF(8) .                                     S22025
         GBLB  &IEDQMHF(64)                                    @OZ37662
         GBLB  &IEDQTAC                                        @OZ41718
         GBLC  &IEDQAD(5),&IEDQSV(8),&IEDQCTM                   SA57685
         GBLC  &IEDQSV1(50),&IEDQGN                            @Y17XAFF
         LCLA  &A,&S,&L,&P,&LP,&CTBCNT .                         S22025
         LCLB  &NO,&NB,&B(8),&CONC .                           @OZ41718
         LCLB  &GPT,&SPCO,&BFRD                                  S22024
         LCLB  &LUNT,&LINEMSG,&QBYMSG                          @ZM04782
         LCLC  &CHA,&IEDQID(2),&IEDQCTB(2) .                     S22025
         LCLC  &CHB,&CHC,&CHD                                    S22024
         LCLC  &SAVE                                           @OZ37662
.******************* MICROFICHE FLAGS *********************** SUPT CODE
.*C638400,646000,655000                                          S22027
.*A636000-637800                                                 S22027
.*A042000-044400,777500                                          S99528
.*C771700-773100                                                 S99528
.*A043600                                                        S99228
.*C027000,030000,044100,139890-140540,262500,264000,265500       S99228
.*C267000,270000,777000-777500                                   S99228
.*A039000,2888000-XXXXXX,669600-671400                           S22029
.*C023400,261000-266500,285000,312000,780000                     S22029
.*D041000,300000-306000,669600-671400                            S22029
.*A019000,022000,127000-128000,138020-139840,152000-155400       S22025
.*A184000,196000,199000,202000-203000,246000-259800,310000       S22025
.*A475200-476960,582500-583000,595000,621200-622600,658000       S22025
.*A706000,712000                                                 S22025
.*C021000,162000,201000                                          S22025
.*C030000-030800,138000,150000-151000,174000-175000              S22025
.*C189000-192600,300000-301000,339000-350200,576000-578200       S22025
.*C591000,627000,633000,645000-646000,654000-655000,669000       S22025
.*C738000,768000-770200                                          S22025
.*D033000-039000                                                 S22025
.*A474000                                                        A50220
.*A042000                                                        A47143
.*C738000                                                        A47143
.*C747000                                                        S21101
.*C108000-114000                                                 A42365
.*C474000                                                       SA56918
.*C381000,384000                                                SA50203
.*A594000                                                       SA50203
.*C738000                                                        A52954
.*C043200,044160-044260,384700,594400                           SA56318
.*C030200,030826-041500,771000     SEE IEDQCKO/IEDQGCH          SA57685
.*D022000,030850,042000,706000,712000,                          SA57685
.*C021000,030820,147000,159000,165000,171000,186000              S22024
.*C189000-192000,193200-194400,194640-194760,204000-207000       S22024
.*C282000,576000,579000,594000,642000,651000,657000-663000       S22024
.*C669000,594200                                                 S22024
.*A024000,027000,030200,030600,128000,396000,399000,637800       S22024
.*A696000,699000                                                 S22024
.*A103000,738000,738500,753000                                   Y05330
.*C006000-012000,030823,108000-126000,138100-138130,381000,      Y05330
.*C408000,429000,450000,474090,480000,483000,495000,585000,      Y05330
.*C765000-770200                                                 Y05330
.*D138140,354000,387000-393000,411000-423000,432000-444000,      Y05330
.*D453000-462000,474180,474360,474540-474810,486000-487000,      Y05330
.*D498000,555000-561000                                          Y05330
.*C171000,732600                                                 Y06327
.*A172000                                                        Y06327
.*A738300                                                        X01004
.*D738500                                                        X01004
.*A246000                                                      SA66363
.*C594000                                                       OX01432
.*D585000                                                       OX01432
.*A475200                                                       SA66922
.*C475200                                                       SA66922
.*A030700,147250,147650,696150                                   X03039
.*C030823,147400,148200,384700,594400,638020,696400,696650       X03039
.*C144000,148350,165000,216000,219000,289000,324000,369000     @Z30X8FG
.*C543000                                                      @Z30X8FG
.*A396000,475100                                                 X03039
.*C173100                                                      @XA06352
.*A107400,477000,480000,655000,669000                          @X50X9FH
.*C022000,655000,669000                                        @X50X9FH
.*D045000                                                      @X50X9FH
.*C696400                                                      @ZA03106
.*A657050                                                      @XA09782
.*C285000,290000                                               @SA75764
.*D173100-173130                                               @OY11968
.*A771000                                                      @Y17XAFF
.*D477200-479000                                               @Y17XAFF
.*C600000,159950,140440,655000-656000                          @Y17XAFF
.*C022000,027050,030250,024050,107400,147700,675000,670000     @Y17XAFF
.*C696000-700000,711000,147950,148000-148050,159100,159050     @Y17XAFF
.*C159200,172400,186600,202500,475200,594200,637900,357000     @Y17XAFF
.*C669000                                                      @SA05843
.*C594680                                                      @OY16376
.*A656600                                                      @OZ31432
.*A001816                                                      @OZ37276
.*C001824                                                      @OZ37276
.*A002768                                                      @OZ36902
.*A001138,001194,577000,697000                                 @OZ37662
.*C337000,656640-656800                                        @OZ37662
.*A001141,001864,474700,475320                                 @OZ41718
.*C001166,731000                                               @OZ41718
.*C656740                                                      @OZ43705
.*C109000-113000                                               @OZ46458
.*C718000                                                      @OZ44387
.*A002264                                                      @OZ48027
.*D474770-474910                                               @OZ49094
.*A730000                                                      @OZ49094
.*PACKAGE ERROR                                                @OZ49699
.*A475000                                                      @OZ52041
.*D730250-730750                                               @OZ52041
.*A001824                                                      @OX27983
.*D001832                                                      @OX27983
&A       SETA  N'&ALIAS+1                                        Y05330
         AIF   (NOT &IEDQZA(21)).GO                              S99228
         MNOTE 12,'*** IED901 ALL TERMINAL MACROS MUST PRECEDE TSINPUT'
.GO      AIF   ('&TERM' EQ 'LUNT').RESETSK                     @OZ37276
&IEDQAR(41)  SETA 0                     CLOCK                  @OZ37276
&IEDQAR(42)  SETA 0                     CINTVL                 @OZ37276
.RESETSK ANOP                                                  @OZ48100
         AIF   ('&TERM' EQ '').COK                             @OX27983
         AIF   ((&IEDQRN(4) AND NOT &IEDQRN(3)) OR (NOT &IEDQRN(4)     *
               AND NOT &IEDQRN(3))).AR        MIXSNA OR NOSNA? @OZ48100
         AIF   ('&TERM' EQ 'LINE' OR '&TERM' EQ 'LUNT' OR              *
               '&TERM' EQ 'PUNT' OR T'&GROUP NE 'O').AR        @OZ48100
         MNOTE 12,'PRE-SNA DEVICE CODED BUT INTRO HAS ONLYSNA CODED'
.*                                                             @OZ48100
.AR      ANOP                                                  @OZ48100
         AIF   ('&SECTERM' NE 'YES' OR '&TERM'(4,1) NE 'C').COK  S99228
         AIF   ('&TERM'(1,4) EQ '274C').COK                      S99228
         MNOTE 12,'*** IED902 TYPE=&TERM AND SECTERM=YES ARE MUTUALLY E*
               XCLUSIVE'                                        SA56318
.COK     ANOP  .                                                 S99228
&IEDQSV1(17) SETC '&TERM'                                      @OZ41718
.A1      AIF   (&IEDQAR(10) EQ 0).C0
         AIF   (&IEDQAR(10) EQ 3 AND '&NAME' EQ '&IEDQSV(1)').OPT
         IEDQGCH 3
.C0      AIF   (&IEDQZA(55)).C1
         AIF   ('&IEDQZA(54)' EQ '&IEDQZA(55)' AND '&IEDQZA(53)'       X
               EQ '&IEDQZA(55)').A3
         MNOTE 12,'***IHB315 SEQUENCE ERROR-MUST PRECEDE LAST ENTRY    X
               SPEC. BY TTABLE MACRO'
         AGO   .A4
.A3      MNOTE 12,'***  IHB070 SEQUENCE ERROR-MUST FOLLOW TTABLE MACRO'
.A4      ANOP
&IEDQNO  SETB  1
.C1      AIF   ('&NAME' NE '').C1A
         MNOTE 12,'*** IHB076 MACRO NAME FIELD BLANK- NAME REQUIRED'
&IEDQNO  SETB  1
.C1A     AIF   (K'&NAME LE &IEDQAR(1)-3).C1B
&S       SETA  &IEDQAR(1)-3
         MNOTE 4,'*** IHB302 NAME FIELD LONG- TRUNCATED TO &S CHARACTER*
               S'
.C1B     ANOP                                                    Y05330
&A       SETA  &A-1                                              Y05330
         AIF   (&A EQ 0).C1B1                                    Y05330
         AIF   (K'&ALIAS(&A) LE &IEDQAR(1)-3).C1B                Y05330
         AIF   (K'&ALIAS(&A) LE &IEDQAR(1)+&IEDQAR(1)-4 AND '&ALIAS(&A)X
               '(K'&ALIAS(&A)-1,1) EQ '''').C1B                  Y05330
 MNOTE 4,'*** IHB302 ALIAS &ALIAS(&A) LONG-TRUNCATED TO &S CHARACTERS'
         AGO   .C1B                                              Y05330
.C1B1    ANOP                                                  @Y17XAFF
.*       IF 270X ONLY, DO NOT ALLOW TERM=LINE,LNCP,PUNT, SSCP, OR LUNT
         AIF   (&IEDQRN(1)).A001                               @Y17XAFF
         AIF   ('&TERM' NE 'LINE' AND '&TERM' NE 'LNCP' AND            *
                '&TERM' NE 'PUNT' AND '&TERM' NE 'SSCP' AND            *
                '&TERM' NE 'LUNT').A001                        @PI02879
         MNOTE 12,'*** IED950  TERM=&TERM INVALID FOR DEFINED SYSTEM.'
.*                                                             @Y17XAFF
.A001    AIF   ('&TERM' EQ 'LNCP').A003                        @Y17XAFF
.*                                                             @Y17XAFF
.*       NCP ONLY OPERANDS SHOULD NOT BE CODED IF TERM NE LNCP @Y17XAFF
.*                                                             @Y17XAFF
         AIF   (T'&BKUPNME NE 'O' AND T'&IPLTXID NE 'O' AND            *
               T'&DUMPDCB NE 'O' AND T'&CKPTDCB NE 'O').A002   @Y17XAFF
         AIF   ('&IPLAUTO' EQ 'NO' AND '&DMPAUTO' EQ 'NO' AND          *
               '&BACKUP' EQ 'NO' AND '&BRINGUP' EQ 'NO').A003  @Y17XAFF
.A002    MNOTE 4,'*** IED952 UNNECESSARY OPERAND(S) CODED FOR TERM=&TER*
               M'                                              @YM08519
.*       ONLY LOOK AT NEW TERM EQ VALUES                       @Y17XAFF
.A003    AIF   ('&TERM' NE 'LNCP' AND '&TERM' NE 'SSCP' AND            *
                '&TERM' NE 'PUNT' AND '&TERM' NE 'LINE').A401  @Y17XAFF
.*                                                             @Y17XAFF
.*       INSURE THAT NO UNNECESSARY OPERANDS HAVE BEEN CODED   @Y17XAFF
.*                                                             @Y17XAFF
&IEDQFL(9) SETB 0               RESET CONCENTRATOR BIT OFF FOR @OZ48027
.*                              TERM= LNCP,SSCP,LINE,PUNT      @OZ48027
         AIF   (T'&QBY     EQ 'O' AND T'&ALTDEST EQ 'O' AND            *
                T'&QUEUES  EQ 'O' AND T'&ADDR    EQ 'O' AND            *
                T'&CLOCK   EQ 'O').A005                        @Y17XAFF
.A004    MNOTE 4,'*** IED952 UNNECESSARY OPERAND(S) CODED FOR TERM=&TER*
               M'                                              @YM08519
         AGO   .A006
.A005    AIF   (T'&BUFSIZE NE 'O' OR  T'&BFDELAY NE 'O' OR             *
                T'&FEATURE NE 'O' OR  T'&TBLKSZ  NE 'O' OR             *
                T'&DIALNO  NE 'O' OR  T'&NTBLKSZ NE 'O').A004  @Y17XAFF
         AIF   (T'&CINTVL  NE 'O' OR  T'&DVCID   NE 'O' OR             *
                T'&QCNTRL  NE 'O' OR  T'&CTBMAX  NE 'O' OR             *
                T'&RETRY   NE 'O' OR  T'&SPECOUT NE 'O').A004  @Y17XAFF
         AIF   (T'&GPCLSTR NE 'O' OR  T'&ACTIVE(2) NE 'O').A004
.*                                                             @Y17XAFF
         AIF   ('&COMP'    NE 'NO'  OR '&LEVEL'    NE '(0)' OR         *
                '&SECTERM' NE 'NO'  OR '&UTERM'    NE 'NO'  OR         *
                '&LMD'     NE 'NO'  OR '&MB'       NE 'NO').A004
.*                                                             @Y17XAFF
         AIF   ('&SCRSIZE' NE '(12,40)').A004                  @Y17XAFF
.*                                                             @Y17XAFF
.*       IF LNCP CHECK FOR MORE UNNECESSARY OPERANDS           @Y17XAFF
.*                                                             @Y17XAFF
.A006    AIF   ('&TERM' NE 'LNCP').A101                        @Y17XAFF
         AIF   (T'&GROUP   EQ 'O' AND T'&TCMSESN EQ 'O' AND            *
                T'&RLN     EQ 'O' AND '&USS'     EQ 'NONE').A007
.*                                                             @Y17XAFF
         MNOTE 4,'*** IED952 UNNECESSARY OPERAND(S) CODED FOR TERM=&TER*
               M'                                              @YM08519
.*                                                             @Y17XAFF
.*                                                             @Y17XAFF
.*       VALIDATE  LNCP OPERANDS                               @Y17XAFF
.*                                                             @Y17XAFF
.A007    AIF   (T'&DCB NE 'O').A008     IS DCB CODED           @Y17XAFF
         MNOTE 8,'*** IED953 DCB OPERAND MISSING.'             @Y17XAFF
&IEDQNO  SETB  1                        SET NO GO SWITCH       @Y17XAFF
.A008    ANOP                                                  @Y17XAFF
&IEDQSV1(1) SETC '&BKUPNME'             WORK WITH BKUPNME      @Y17XAFF
&IEDQSV1(2) SETC '&IPLTXID'             WORK WITH IPLTXID      @Y17XAFF
&IEDQSV1(3) SETC '&DUMPDCB'             WORK WITH DUMPDCB      @Y17XAFF
&IEDQSV1(4) SETC '&CKPTDCB'             WORK WITH CKPTDCB      @Y17XAFF
         AIF   ('&IPLAUTO' EQ 'YES').A013 WORK WITH IPLAUTO    @Y17XAFF
         AIF   ('&IPLAUTO' EQ 'NO').A014                       @Y17XAFF
         MNOTE 4,'*** IED954 INVALID IPLAUTO OPERAND, WILL USE DEFAULT'
.*                                                             @Y17XAFF
         AGO   .A014                                           @Y17XAFF
.A013    ANOP
&IEDQZA(56) SETB 1                      SET GLOBAL             @Y17XAFF
.A014    AIF   ('&DMPAUTO' EQ 'YES').A015 WORK WITH DMPAUTO    @Y17XAFF
         AIF   ('&DMPAUTO' EQ 'NO').A016                       @Y17XAFF
         MNOTE 4,'*** IED955 INVALID DMPAUTO OPERAND, WILL USE DEFAULT'
.*                                                             @Y17XAFF
         AGO   .A016                                           @Y17XAFF
.A015    ANOP                                                  @Y17XAFF
&IEDQZA(57) SETB 1                      SET GLOBAL             @Y17XAFF
.A016    AIF   ('&BACKUP' EQ 'YES').A017 WORK WITH BACKUP      @Y17XAFF
         AIF   ('&BACKUP' EQ 'NO').A018                        @Y17XAFF
         MNOTE 4,'*** IED956 INVALID BACKUP OPERAND, WILL USE DEFAULT'
.*                                                             @Y17XAFF
         AGO   .A018                                           @Y17XAFF
.A017    ANOP                                                  @Y17XAFF
&IEDQZA(59) SETB 1                                             @Y17XAFF
.A018    AIF   ('&BRINGUP' EQ 'YES').A019  WORK WITH BRINGUP   @Y17XAFF
         AIF   ('&BRINGUP' EQ 'NO').A020                       @Y17XAFF
         MNOTE 4,'*** IED957 INVALID BRINGUP OPERAND, WILL USE DEFAULT'
.*                                                             @Y17XAFF
         AGO   .A020                                           @OZ36902
.A019    ANOP                                                  @Y17XAFF
&IEDQZA(58) SETB 1                      SET GLOBAL             @Y17XAFF
.A020    AIF   (&IEDQNO).EXIT           IF SERIOUS ERROR, BRCH @Y17XAFF
.*       SET LNCP GLOBALS                                      @Y17XAFF
&IEDQFL(13) SETB 1                      DEV DEP FLAG           @Y17XAFF
&IEDQCOD(4) SETB 1                      NCP CODED              @Y17XAFF
&IEDQZA(63) SETB 1                      TTE PREFIX NEEDED      @Y17XAFF
.*       GO CREATE LNCP QCB                                    @Y17XAFF
         IEDQTQ &DCB,TERM=LNCP                                 @Y17XAFF
.*       GO CREATE LNCP DCT ENTRY                              @Y17XAFF
         IEDQCHI LNCP,FMPROF=&FMPROF,TSPROF=&TSPROF            @Y17XAFF
         AGO   .NOBFR                   GO GENERATE TNT & TTE  @Y17XAFF
.A101    AIF   ('&TERM' NE 'SSCP').A200                        @Y17XAFF
.*                                                             @Y17XAFF
.*       VALIDATE SSCP OPERANDS                                @Y17XAFF
.*
         AIF   (NOT &IEDQCOD(5)).A102                          @Y17XAFF
         MNOTE 12,'*** IED958 ONLY ONE SSCP TTE SHOULD BE CODED.'
.*                                                             @Y17XAFF
         MEXIT                                                 @Y17XAFF
.A102    AIF   (T'&GROUP   NE 'O' OR  T'&TCMSESN   NE 'O' OR           *
                T'&RLN     NE 'O' OR  T'&DCB       NE 'O' OR           *
                T'&ACTIVE  NE 'O').A103                        @Y17XAFF
         AIF   (T'&FMPROF  EQ 'O' AND T'&TSPROF    EQ 'O' AND          *
                '&USS'     EQ 'NONE').A104                     @Y17XAFF
.A103    MNOTE 4,'*** IED952 UNNECESSARY OPERAND(S) CODED FOR TERM=&TER*
               M'                                              @YMO8519
.A104    ANOP                                                  @Y17XAFF
&IEDQCOD(5) SETB 1                      SET SSCP CODED BIT     @Y17XAFF
&IEDQZA(63) SETB 1                      TTE PREFIX NEEDED      @Y17XAFF
         AIF   (&IEDQNO).EXIT                                  @ZM04784
         IEDQCHI SSCP                                          @PI05737
         AGO   .NOBFR                   GO GENERATE TNT AND TTE@Y17XAFF
.A200    AIF   ('&TERM' NE 'LINE').A301                        @Y17XAFF
.*                                                             @Y17XAFF
.*       VALIDATE TERM=LINE OPERANDS                           @Y17XAFF
.*                                                             @Y17XAFF
         AIF   (T'&FMPROF  EQ 'O' AND T'&TSPROF  EQ 'O' AND            *
                T'&TCMSESN EQ 'O' AND '&USS'     EQ 'NONE' AND         *
                T'&DCB     EQ 'O').A201                        @Y17XAFF
         MNOTE 4,'*** IED952 UNNECESSARY OPERAND(S) CODED FOR TERM=&TER*
               M'                                              @YM08519
.*                                                             @Y17XAFF
.A201    AIF   (T'&RLN NE 'O').A202                            @Y17XAFF
         MNOTE 12,'*** IHB001 NEED RLN OPERAND.'               @Y17XAFF
&IEDQNO  SETB  1                        SET NO GO SWITCH       @Y17XAFF
         AGO   .A206                                           @Y17XAFF
.A202    AIF   (&RLN GE 1 AND &RLN LE 255).A203  VALIDATE RLN  @Y17XAFF
.A204    MNOTE 12,'*** IED913 INVALID RLN OPERAND.'            @Y17XAFF
&IEDQNO  SETB  1                        SET NO GO SWITCH       @Y17XAFF
         AGO   .A205                                           @Y17XAFF
.A203    AIF   (&RLN NE &IEDQRL).A204   IS RLN CONTIGUOUS      @Y17XAFF
&IEDQRL  SETA  &IEDQRL+1                UPDATE COUNTER         @Y17XAFF
.A205    AIF   (T'&GROUP NE 'O').A206   VALIDATE GROUP OPERAND @Y17XAFF
         MNOTE 12,'*** IED961 NEED GROUP OPERAND.'
&IEDQNO  SETB  1                        SET NO GO SWITCH       @Y17XAFF
         AGO   .A207                                           @Y17XAFF
.A206    AIF   ('&GROUP' EQ '&IEDQGN').A207                    @Y17XAFF
         MNOTE 12,'*** IED912 SEQ ERR-MUST FOLLOW APPROPRIATE GROUP MAC*
               RO.'                                            @Y17XAFF
&IEDQNO  SETB  1                        SET NO GO SWITCH       @Y17XAFF
.A207    AIF   (&IEDQNO).EXIT           IF SERIOUS ERROR, BRCH @Y17XAFF
.*       GO CREATE QCB                                         @Y17XAFF
         IEDQTQ &GROUP,,,&RLN,TERM=LINE                        @Y17XAFF
.*       SET APPROPRIATE INDICATORS                            @Y17XAFF
&NB      SETB  1                        SET LINE IND BIT       @Y17XAFF
&IEDQCOD(2) SETB 1                      TERM=LINE CODED        @Y17XAFF
&IEDQZA(63) SETB 1                      TTE PREFIX NEEDED      @Y17XAFF
&IEDQCOD(3) SETB 0                      RESET PUNT CODED IND   @Y17XAFF
.*       GO CREATE DCT ENTRY,IF NECESSARY                      @Y17XAFF
         IEDQCHI LINE
         AGO   .NOBFR                                          @Y17XAFF
.A301    AIF   ('&TERM' NE 'PUNT').A401                        @Y17XAFF
.*                                                             @Y17XAFF
.*       VALIDATE TERM=PUNT OPERANDS                           @Y17XAFF
.*                                                             @Y17XAFF
         AIF   (T'&GROUP   EQ 'O' AND T'&TCMSESN EQ 'O' AND            *
                T'&RLN     EQ 'O' AND T'&DCB     EQ 'O' AND            *
                '&USS'     EQ 'NONE').A302                     @Y17XAFF
         MNOTE 4,'*** IED952 UNNECESSARY OPERAND(S) CODED FOR TERM=&TER*
               M'                                              @YM08519
.*                                                             @Y17XAFF
.A302    AIF   (&IEDQCOD(2)).A303                              @Y17XAFF
         MNOTE 12,'*** IED963 SEQ ERR-PUNT TTE MUST FOLLOW A LINE TERMI*
               NAL MACRO AND A GROUP MACRO.'                   @Y17XAFF
         AGO   .EXIT                    FINISH MACRO           @Y17XAFF
.A303    ANOP                                                  @Y17XAFF
.*       GO CREATE QCB                                         @Y17XAFF
         IEDQTQ TERM=PUNT                                      @Y17XAFF
.*       SET GLOBAL VARIABLES                                  @Y17XAFF
&IEDQZA(63) SETB 1                      TTE PREFIX NEEDED      @Y17XAFF
&IEDQCOD(3) SETB 1                      PUNT HAS BEEN CODED    @Y17XAFF
.*       GO CREATE DCT ENTRY                                   @Y17XAFF
         IEDQCHI PUNT,FMPROF=&FMPROF,TSPROF=&TSPROF
         AGO   .NOBFR                                          @Y17XAFF
.A401    AIF   ('&TERM' NE 'LUNT').A1000                       @Y17XAFF
.*                                                             @Y17XAFF
.*       VALIDATE TERM=LUNT OPERANDS                           @Y17XAFF
.*                                                             @Y17XAFF
         AIF   (T'&DCB     EQ 'O').A402                        @Y17XAFF
         MNOTE 4,'*** IED952 UNNECESSARY OPERAND(S) CODED FOR TERM=&TER*
               M'                                              @YM08519
.*                                                             @Y17XAFF
.A402    AIF   (&IEDQCOD(2) AND &IEDQCOD(3)).A403              @Y17XAFF
         MNOTE 12,'*** IED964 SEQ ERR-LUNT MUST FOLLOW A PUNT AND LINE *
               TERMINAL MACRO AND A GROUP MACRO.'              @Y17XAFF
&IEDQNO  SETB  1                        SET NO GO SWITCH       @Y17XAFF
.A403    AIF   (T'&TCMSESN EQ 'O').A1002                       @Y17XAFF
         AIF   ('&TCMSESN' EQ 'LUINIT' OR '&TCMSESN' EQ 'LUTERM' OR    *
                '&TCMSESN' EQ 'NORMAL').A1002                  @Y17XAFF
         MNOTE 4,'*** IED965 INVALID TCMSESN OPERAND, WILL USE DEFAULT'
.*                                                             @Y17XAFF
         AGO   .A1002                                          @Y17XAFF
.A1000   AIF   (T'&FMPROF EQ 'O'  AND T'&TSPROF EQ 'O' AND             *
                '&USS'    EQ 'NONE' AND T'&TCMSESN EQ 'O' AND          *
                T'&ACTIVE(2) EQ 'O').A1002 SNA ONLY OPERANDS   @Y17XAFF
         MNOTE 4,'*** IED952 UNNECESSARY OPERAND(S) CODED FOR TERM=&TER*
               M'                                              @YM08519
.*                                                             @Y17XAFF
.A1002   AIF   ('&UTERM' EQ 'NO').C1F                          @Y17XAFF
         AIF   ('&TERM' EQ 'LUNT').C1Z                         @X50X9FH
         AIF   ('&LEVEL' NE '(0)' OR '&CLOCK' NE '' OR '&COMP' NE 'NO' X
               ).C1Z                                           @OZ46458
         AIF   ('&DIALNO' EQ 'NONE' OR '&DIALNO' EQ '').CONT   @OZ46458
         AGO   .C1Z                                            @OZ46458
.CONT    ANOP                                                  @OZ46458
         AIF   ('&CINTVL' NE '' OR '&SECTERM' NE 'NO').C1Z     @OZ46458
         AIF   ('&NTBLKSZ' NE '' OR '&TBLKSZ' NE '' OR '&BFDELAY' NE   X
               '').C1Z                                           Y05330
         AIF   ('&QCNTRL' NE '' OR '&LMD' NE 'NO' OR '&DVCID' NE '' OR X
               '&CTBMAX' NE '' ).C1Z .                           S22025
         AIF   ('&GPCLSTR' NE '').C1Z                            S22024
         AIF   ('&COMP' EQ 'NO' OR '&GROUP' NE '').C2A           S22024
         AGO   .C1F
.C1Z     MNOTE 12,'***IHB342 INVALID OPERANDS SPECIFIED'
         AGO   .C5M
.C1F     AIF   ('&DVCID' EQ '').TERM .                           S22025
         AIF   (&IEDQZA(13)).CSPEC .                             S22025
         MNOTE 8,'*** IHB233 INCONSISTENT WITH FEATURE OPERAND OF THE IX
               NTRO MACRO' .                                     S22025
&IEDQNO  SETB  1 .                                               S22025
.CSPEC   AIF   ('&BFDELAY' EQ '' AND '&DIALNO' EQ '' AND '&CINTVL' EQ  X
               '' AND '&CLOCK' EQ '').CHKDID                     Y05330
&IEDQNO  SETB  1 .                                               S22025
         MNOTE 12,'*** IHB342 INVALID OPERANDS SPECIFIED' .      S22025
.CHKDID  AIF   ('&DVCID(1)' NE 'CONC').TAC .                     S22025
&IEDQID(1)  SETC  '&DVCID(1)' .                                  S22025
&IEDQAR(46) SETA 254 .                                           S22025
&IEDQFL(9) SETB 0 .                                              S22025
&CONC    SETB  1 .                                               S22025
&IEDQAR(47) SETA 1 .                                             S22025
&IEDQQEF(3) SETB 0 .                                             S22025
         AIF   ('&QUEUES' EQ '' AND '&LEVEL' EQ '(0)' AND '&ALTDEST'   X
               EQ '' AND '&SECTERM' EQ 'NO' ).NONERR .           S22025
         AGO   .ANERR .                                          S22025
.NONERR  AIF   ('&COMP' EQ 'NO' AND '&LMD' EQ 'NO' AND '&QCNTRL' EQ    X
               '' AND '&MB' EQ 'NO' ).CHKCONC .                  S22025
.ANERR   MNOTE 12,'*** IHB342 INVALID OPERANDS SPECIFIED' .      S22025
&IEDQNO  SETB  1 .                                               S22025
.CHKCONC AIF   ('&QBY' EQ 'T').QBYCHK                            S22025
&IEDQNO  SETB  1 .                                               S22025
         AIF   ('&QBY' NE '' ).QBYO .                            S22025
         MNOTE 12,'*** IHB001 QBY OPERAND REQ''D- NOT SPECIFIED' S22025
         AGO   .QBYCHK .                                         S22025
.QBYO    AIF   (&QBYMSG).QBYCHK                                @ZM04776
&QBYMSG  SETB  1                                               @ZM04776
         MNOTE 12,'*** IHB002 INVALID QBY OPERAND SPECIFIED- &QBY'