         MACRO
&NAME    TERRSET  &BIT=ON
         GBLB  &IEDQZA(64)
.*             VERSION DATED NOVEMBER 04,1976                  @OY14527
.*A500000,650000,700000                                        @OY14527
         SPACE
         AIF   (NOT &IEDQZA(5) AND (&IEDQZA(1) OR &IEDQZA(2))).OK
         MNOTE 12,'***  IHB070  SEQUENCE ERROR-MUST FOLLOW INHDR, INBUF*
               , OUTHDR OR OUTBUF MACRO'
         AGO   .MEND
.OK      ANOP
         AIF   ('&BIT' EQ 'ON' OR '&BIT' EQ 'OFF').BITOK       @OY14527
         MNOTE 4,'***  IHB086 BIT=  INVALID KEYWORD, ON ASSUMED'
.BITOK   ANOP                                                  @OY14527
&NAME    L     1,IEDADBUF .             GET BUFFER ADDRESS FROM AVT
         L     1,12(1) .                GET LCB ADDR FROM BUFFER
         L     1,92(,1) .               GET SCB ADDRESS
         AIF   ('&BIT' EQ 'OFF').OFF                           @OY14527
         OI    18(1),X'08' .            TURN ON USER ERROR BIT
         AGO   .MEND                                           @OY14527
.OFF     ANOP
         NI    18(1),X'F7'              TURN OFF USER BIT      @OY14527
.MEND    SPACE 2
         MEND
