         MACRO
&NAME    PRINTX &DCB,&TITLE,&BUFFER,&LINES,&NOPAGE
.*--------------------------------------------------------------------*
.*       MAURICE SALINAS                                              *
.*       THIS MACRO WAS DESIGNED WITH THE INTENTION OF PROVIDING      *
.*       THE ASSEMBLY LANGUAGE PROGRAMMER WITH AN EASY WAY TO CREATE  *
.*       A REPORT BY JUST LETTING "PRINTX" GENERATE THE CODE TO DO IT.*
.*                                                                    *
.*       SYMBOL  × PRINTX × DCB,     DATA CONTROL BLOCK.              *
.*               ×        × TITLE,   TITLE,(TITLE,SUBTITLE), OR OMIT  *
.*               ×        × BUFFER,  REGULAR PRINT RECORD.            *
.*               ×        × LINES,   LINES PER PAGE TO BE PRINTED.    *
.*               ×        × NOPAGE   OPTIONAL. IF CODED PAGE COUNT IS *
.*                                   SUPPRESS.                        *
.*--------------------------------------------------------------------*
         LCLC  &A,&B,&C,&D,&E
&A       SETC  '$$A'.'&SYSNDX'
&B       SETC  '$$B'.'&SYSNDX'
&C       SETC  '$$C'.'&SYSNDX'
&D       SETC  '$$D'.'&SYSNDX'
&E       SETC  '$$E'.'&SYSNDX'
&NAME    LA    R15,&LINES          NUMBER OF LINES PER PAGE.
         CH    R15,&B              HAVE WE PRINTED A FULL PAGE?
         BNZ   &A                  NO - PRINT A REGULAR LINE.
         SR    R15,R15             CLEAR REGISTER 15.
         STH   R15,&B              STORE LINES COUNTER.
         AIF   ('TITLE(1)' EQ '').$$LINE
         AIF   ('NOPAGE' EQ '').NOPAGE
         MVC   &TITLE(1)+120(6),&E PAGE CONSTANT.
         UNPK  &TITLE(1)+126(4),&D UNPACK PAGE NUMBER
         OI    &TITLE(1)+129,X'F0' FIX SIGN.
         CVB   R15,&D              CURRENT PAGE COUNTER.
         LA    R15,1(R15)          INCREMENT BY ONE.
         CVD   R15,&D              CONVERT TO PACK FORMAT.
.NOPAGE  ANOP
         PUT   &DCB,&TITLE(1)      PRINT TITLE.
         AIF   ('&TITLE(2)' EQ '').$$LINE
         PUT   &DCB,&TITLE(2)      PRINT SUBTITLE.
.$$LINE  ANOP
&A       PUT   &DCB,&BUFFER        PRINT A REGULAR LINE.
         LH    R15,&B              CURRENT LINES PRINTED.
         LA    R15,1(R15)          INCREMENT BY ONE.
         STH   R15,&B              STORE CURRENT COUNTER.
         B     &C                  EXIT OUT.
         AIF   ('NOPAGE' EQ '').SKIPD
         DS    0D                  DOUBLE WORD ALIGNMENT..
&D       DC    PL8'+1'             TITLE PAGE COUNTER.
&E       DC    C' PAGE '           PAGE CONSTANT IN HEADING.&L
.SKIPD   ANOP
&B       DC    H'&LINES'           NUMBER OF LINES PER PAGE.
&C       DS    0H                  EXIT OUT.
         MEND
