*          DATA SET Q3QDEBUG   AT LEVEL 001 AS OF 04/01/83
         MACRO  ,                                                 INTEL
&NAME    QDEBUG &MSG                                              INTEL
         GBLB   &DEBUG                                            INTEL
         PUSH  PRINT                                              INTEL
         PRINT GEN                                                INTEL
&NAME    DS    0H                                                 INTEL
         AIF    (NOT &DEBUG).NOGEN                                INTEL
         LCLA  &L                                                 INTEL
&L       SETA  K'&MSG-2                                           INTEL
         USING QDISPLAY,R15   BASE REG FOR DISPLAY WORK AREA      INTEL
         L     R15,QVDSPL     LOAD BASE REG                       INTEL
         LA    R14,QDMSG      ADDRESS OF MESSAGE                  INTEL
         ST    R14,QDMSGA     POKE IT IN PLACE                    INTEL
         MVC   QDMSG,QBLANK   INIT MESSAGE                        INTEL
         MVC   QDMSG(&L),=C&MSG   MOVE IN MSG                     INTEL
         MVC   QDMLNG,=H'80'  EIGHTY BYTES FOR DISPLAY            INTEL
         DROP  R15                                                INTEL
         L     R15,=V(DISPLAY)                                    INTEL
         BALR  R14,R15        CALL DISPLAY                        INTEL
.NOGEN   ANOP   ,                                                 INTEL
         POP   PRINT                                              INTEL
         MEND   ,                                                 INTEL
