./ ADD NAME=ALLOC                                  21MAY81 06.59.29
*          DATA SET ALLOC      AT LEVEL 001 AS OF 03/05/80
         MACRO
&NAME    ALLOC &DUMMY,&PERM,&DSN=,&DDN=,&DDNRET=,&MEMBER=,&DISP=,      X
               &VOL=,&UNIT=,&SYSOUT=,&FREE=,&COPIES=,&LABEL=,          X
               &BLKSIZE=,&DEN=,&DSORG=,&KEYLEN=,&LRECL=,&RECFM=,       X
               &PASWORD=,&DSNRET=,&MF=AUTO,&PREFIX=,&ERROR=,           X
               &SPACE=,&F=,&FILE=,&DA=,&QNAME=,&DSORGRT=,              X
               &VOLRET=,&DCBDSN=,&DCBDDN=,&SPECIAL=,&DDNTO=,           X
               &FORMS=,&DEST=,&SSREQ=,&FORUSER=,&TU=,&DSNPDE=
.**********************************************************************
.*                                                                    *
.*    THIS MACRO PROVIDES A DYNAMIC ALLOCATION FUNCTION BY BUILDING   *
.*    A DYNAMIC ALLOCATION PARAMETER LIST AND INVOKING SVC 99.        *
.*    IT FIRST SETS UP A WORKAREA ENVIRONMENT FOR THE PARAMETER LIST  *
.*    AND THEN TESTS THE KEYWORDS SUPPLIED AND INVOKES INNER MACROS   *
.*    TO BUILD THE TEXT UNITS. THE INNER MACROS THEMSELVES USE INNER  *
.*    MACROS TO UPDATE GLOBAL VARIABLES, STORE TEXT UNIT POINTERS ETC *
.*    THERE ARE THREE WAYS OF SPECIFYING THE WORK AREA ADDRESS.       *
.*    A) MF=AUTO, MF=G, MF=(E,ADDRESS,LNTHSYMB).                      *
.*    IN THE FIRST FORM, AN INNER MACRO DYNSPACE IS CALLED TO NAME    *
.*    A WORK AREA, THE NAME BEING RETURNED IN THE GLOBAL SETC         *
.*    VARIABLE &DYNSP. A DSECT IS CREATED TO MAP THIS AREA.           *
.*    THE GLOBAL VARIABLES &DTUO (TEXT UNIT OFFSET COUNTER) AND       *
.*    &DTUPO (TEXT UNIT POINTER OFFSET ACCUMULATOR) ARE SET TO ZERO.  *
.*    THESE ACCUMULATORS ARE UPDATED AS EACH TEXT UNIT PROCESSOR      *
.*    AQUIRES STORAGE. AFTER ALL TEXT UNITS HAVE BEEN BUILT, THE      *
.*    AMOUNT OF SPACE USED IS CALCULATED, AND THE DYNSPACE MACRO IS   *
.*    THEN CALLED AGAIN TO LOG THE AMOUNT NEEDED. DYNSPACE SETS A     *
.*    GLOBAL VARIABLE &DYNSPQ TO THE HIGHEST AMOUNT ANY ALLOC OR      *
.*    FREE MACRO REQUESTED, AND WHEN CALLED WITH THE EXPAND OPTION,   *
.*    (NO OPERANDS OR NAME FIELD SUPPLIED), EXPANDS INTO A DS FOR     *
.*    THAT QUANTITY. (SEE DYNSPACE)                                   *
.*    MF=G SPECIFIES THAT THE ALLOC MACRO ENTER THE BEGIN MACRO       *
.*    WORKAREA TO ACQUIRE THE STORAGE NECESSARY. IT DOES THIS VIA     *
.*    THE RCPDS MACRO. (SEE RCPDS). HOWEVER, IF THE ALLOC MACRO IS    *
.*    CALLED SEVERAL TIMES WITH THIS OPTION, A LOT OF STORAGE WILL BE *
.*    USED UP, AS THE STORAGE WILL NOT BE SHARED. THUS, THIS FORM     *
.*    SHOULD ONLY BE USED IF THE ALLOC/FREE MACRO IS ONLY USED        *
.*    ONCE OR TWICE DURING AN ASSEMBLY.                               *
.*    MF=E CAUSES THE MACRO TO USE A USER SPECIFIED WORK AREA. THE    *
.*    SECOND PARAMETER GIVES THE NAME OF THE WORKAREA, AND AN         *
.*    OPTIONAL THIRD PARAMETER IS THE NAME OF A SYMBOL TO BE EQUATED  *
.*    TO THE LENGTH OF THE REQUIRED WORK AREA.                        *
.*                                                                    *
.*    DYNAMIC ALLOCATION FUNCTIONS ARE SIMILAR TO THOSE AVAILABLE    *
.*    WITH JCL, USING THE SAME KEYWORDS. HOWEVER, CERTAIN FORMATS    *
.*    ARE SLIGHTLY DIFFERENT. FOR INSTANCE, CERTAIN KEYWORDS CAN     *
.*    HAVE VARYING PARAMETERS, EG DATASET NAME, DDNAME, VOLSER ETC.  *
.*    PROVISION IS MADE FOR BOTH VARIABLE SPECIFICATION.             *
.*    IN THE ABSOLUTE FORM, THE PARAMETER IS ENTERED IN QUOTES,      *
.*    E.G.   ALLOC DSN='SYS1.LINKLIB',DISP=SHR                       *
.*    HOWEVER, THIS NAME REMAINS FIXED FOR THE ASSEMBLY.             *
.*    IN THE VARIABLE FORMAT, THE ADDRESS OF A LOCATOR IS SPECIFIED, *
.*    WHERE THE LOCATOR CONSISTS OF A SIX BYTE FIELD, THE FIRST 4    *
.*    BYTES OF WHICH POINT TO THE PARAMETER, WHILE THE NEXT TWO      *
.*    CONTAIN THE LENGTH.                                            *
.*    EG          ALLOC DSN=LOCATOR                                  *
.*       LOCATOR  DC    A(DSN),Y(12)                                 *
.*       DSN      DC    C'SYS1.LINKLIB'                              *
.*                                                                   *
.*       NUMERIC QUANTITIES E.G. COPIES= FOR SYSOUT, SHOULD EITHER   *
.*       SPECIFY A NUMERIC VALUE, COPIES=3,                          *
.*       A VALUE IN A REGISTER, COPIES=(R3),                         *
.*       OR THE NAME OFF A FULLWORD CONTAINING THE VALUE,            *
.*          COPIES=NUMCOPYS, WHERE NUMCOPYS IS THE NAME OF A         *
.*       FULLWORD FIELD.                                             *
.*                                                                   *
.*       OTHER KEYWORDS SUCH AS DISP= CAN ONLY HAVE THE ABSOLUTE     *
.*       FORM, AND VALUES SHOULD NOT BE ENTERED WITHIN QUOTES.       *
.*       ADDITIONAL FACILITIES NOT AVAILABLE WITH JCL ARE THE        *
.*       RETURN BY THE SYSTEM OF INFORMATION ON THE DATASET, EG      *
.*       DSORG. THIS IS DONE BY SPECIFYING DSORGRT=SYMBOL, WHERE     *
.*       SYMBOL IS A SYMBOL WHICH WILL BE EQUATED TO A TWO BYTE      *
.*       FIELD CONTAINING THE DSORG TYPE (SEE JOB MANAGEMENT,        *
.*       SUPERVISOR AND TSO).                                        *
.*       THE SYSTEM CAN ALSO GENERATE AND RETURN A DDNAME. THIS IS   *
.*       CARRIED OUT BY ENTERING DDNTO=(ADDR1,ADDR2,,...)            *
.*       WHERE ADDR1,ADDR2 ETC ARE THE NAMES OF 8 BYTE FIELDS WHICH  *
.*       ARE TO RECEIVE THE DDNAME.                                  *
.*       FOR FURTHER INFORMATION ON DYNAMIC ALLOCATION, SEE          *
.*       JOB MANAGEMENT, SUPERVISOR AND TSO.                         *
.*                                                                   *
.**********************************************************************
         GBLA  &RCPDYN            COUNTER FOR NO ENTRIES TO MACRO
         GBLA  &DTUO              OFFSET TO TEXT UNITS
         GBLA  &DTUPO             OFFSET TO TEXT UNIT POINTERS
         GBLB  &RCPS99(2)         TELL RCPDSECT NEED DSECTS
         GBLC  &DYNP              PREFIX FOR LABELS FOR THIS CALL
         GBLC  &DYNSP         NAME FOR AUTOMATIC STORAGE ALLOC
         LCLA  &DDNRTO,&DSNRTO         FOR EQUATES FOR RETURNED FLDS
         LCLA  &VOLRTO,&DSRGRTO        FOR EQUATES FOR RETURNED FIELDS
         LCLA  &I                 COUNTER
         LCLB  &DSECT             DSECT NEEDED FOR STORAGE, MF=E
         LCLC  &C,&T,&PAR
.*
.*   THE ALLOC MACRO PROVIDES A DYNAMIC ALLOCATION FUNCTION,
&RCPS99(1)     SETB           1
&RCPDYN  SETA  &RCPDYN+1          INCEREMENT COUNTER
&DYNP    SETC  'DYN&RCPDYN' SET DEFAULT PREFIX
&NAME    DS    0H
         AIF   ('&PREFIX' EQ '').TMF
         AIF   (K'&PREFIX LT 4).POK
         MNOTE 4,'PREFIX TOO LONG, 1ST 4 CHARS USED'
&DYNP    SETC  '&PREFIX'(1,4)
         AGO   .TMF
.POK     ANOP
&DYNP    SETC  '&PREFIX'
.TMF     AIF   ('&MF(1)' EQ 'G').GEN
         AIF   ('&MF' NE 'AUTO').TMFE
NAME     DYNSPACE             GET NAME FOR SPACE
         LA    R1,&DYNSP               LOAD ADDRESS OF PARAM LIST
         USING &DYNP.DS,R1             USE GENERATED DSECT
&T       SETC  'A'
&PAR     SETC  '&DYNSP+4'
&DSECT   SETB  1
         AGO   .START
.TMFE    AIF   ('&MF(2)' NE '').E2OK
         MNOTE 4,'PLIST ADDRESS OMITTED, MF=G USED'
         AGO   .GEN
.E2OK    ANOP
&DSECT   SETB  1
         AIF   ('&MF(2)' EQ '(').RMFE
         LA    R1,&MF(2)               LOAD PARAM LIST ADDRESS
         USING &DYNP.DS,R1             USE GENERATED DSECT
         AGO   .START
.RMFE    AIF   ('&MF(2)' EQ '(R1)' OR '&MF(2)' EQ '(1)').START
         LR    R1,&PAR                 LOAD S99 PARAM LIST ADDRESS
         AGO   .START
.GEN     LA    R1,&DYNP.RBP            LOAD ADDRESS OF S99 RBP
.START   LA    R15,&DYNP.RB            LOAD ADDRESS OF S99 RB
         USING S99RB,R15
         ST    R15,0(R1)               AND STORE IN RB POINTER
         XC    4(&DYNP.LEN-4,R1),4(R1) ZERO PARAMETER LIST
         MVI   S99RBLN,20              MOVE IN LIST LENGTH
         MVI   S99VERB,S99VRBAL        MOVE IN VERB CODE
         LA    R14,&DYNP.TUP           LOAD ADDRESS OF TU POINTERS
         ST    R14,S99TXTPP            STORE ADDRESS IN S99 RB
         LA    R15,&DYNP.TU            POINT TO SPACE FOR TEXT UNITS
         USING S99TUNIT,R15
&DTUO    SETA  0
&DTUPO   SETA  0
         AIF   ('&SSREQ' EQ 'YES').SSREQ
.TDSN    AIF   ('&DSN&DA' NE '').DSN
         AIF   ('&DSNPDE' NE '').DSNPDE
         AIF   ('&DSNRET' NE '').DSNRT
         AIF   ('&SYSOUT' NE '').SYSOUT
         AIF   ('&DUMMY' NE '').DUMMY
         AIF   ('&QNAME' NE '').QNAME
.TDDN    AIF   ('&DDN&FILE&F' NE '').DDN
         AIF   ('&DDNRET&DDNTO' NE '').DDNRT
.TUNIT   AIF   ('&UNIT&VOL' NE '').UNIT
.TVOLRET AIF   ('&VOLRET' NE '').VOLRET
.TDSRGO  AIF   ('&DSORGRT' NE '').DSORGRT
.TLABEL  AIF   ('&LABEL' NE '').LABEL
.TPSWD   AIF   ('&PASWORD' NE '').PASWORD
.TFORUSE AIF   ('&FORUSER' NE '').FORUSER
.TTU     AIF   ('&TU' NE '').TU
.TDISP   AIF   ('&DISP' NE '').DISP
.TSPACE  AIF   ('&SPACE' NE '').SPACE
.TLRECL  AIF   ('&LRECL' NE '').DCB
         AIF   ('&DEN' NE '').DCB
         AIF   ('&RECFM' NE '').DCB
         AIF   ('&BLKSIZE' NE '').DCB
         AIF   ('&DSORG' NE '').DCB
         AIF   ('&KEYLEN' NE '').DCB
.TDCBDSN AIF   ('&DCBDSN' NE '').DCBDSN
.TDCBDDN AIF   ('&DCBDDN' NE '').DCBDDN
.TFREE   AIF   ('&FREE' EQ 'CLOSE').FREE                         TE7343
.TPERM   AIF   ('&PERM' EQ 'PERM' OR '&PERM' EQ 'PERMANENT').PERM
         AIF   ('&DUMMY' EQ 'PERM' OR '&DUMMY' EQ 'PERMANENT').PERM
.TSPECI  AIF   ('&SPECIAL' NE '').SPECIAL
         AGO   .SVC99
.SSREQ   RCPSSREQ
         AGO   .TDSN
.DSN     RCPDSN &DSN&DA,&MEMBER
         AGO   .TDDN
.DSNPDE  RCPDSNPD &DSNPDE
         AGO   .TDDN
.DSNRT   RCPDSNRT &DSNRET
&DSNRTO  SETA  &DTUO-46
         AGO   .TDDN
.SYSOUT  RCPSYSOU &SYSOUT,COPIES=&COPIES,FREE=&FREE,DEST=&DEST,        X
               FORMS=&FORMS
         AGO   .TDDN
.DUMMY   RCPDUMMY &DUMMY
         AGO   .TDDN
.QNAME   RCPQNAME &QNAME
         AGO   .TDDN
.DDN     RCPDDN &DDN&F&FILE
         AGO   .TUNIT
.DDNRT   RCPDDNRT &DDNRET
&DDNRTO  SETA  &DTUO-10
         AGO   .TUNIT
.UNIT   RCPUNIT &UNIT,&VOL
         AGO   .TVOLRET
.VOLRET  RCPVOLRT &VOLRET
&VOLRTO  SETA  &DTUO-8
         AGO   .TDSRGO
.DSORGRT RCPDSRGR
&DSRGRTO SETA  &DTUO-2
         AGO   .TLABEL
.LABEL   RCPLABEL &LABEL
         AGO   .TPSWD
.PASWORD RCPPSWD &PASWORD
         AGO   .TFORUSE
.FORUSER RCPFORUS &FORUSER
         AGO   .TTU
.TU      RCPTU &TU
         AGO   .TDISP
.DISP    RCPDISP &DISP
         AGO   .TSPACE
.SPACE   RCPSPACE &SPACE
         AGO   .TLRECL
.DCB     RCPDDCB LRECL=&LRECL,DEN=&DEN,RECFM=&RECFM,BLKSIZE=&BLKSIZE,  X
               DSORG=&DSORG,KEYLEN=&KEYLEN
         AGO .TDCBDSN
.DCBDSN  RCPDCBDS &DCBDSN
         AGO .TDCBDDN
.DCBDDN  RCPDCBDD &DCBDDN
         AGO .TFREE                                              TE7343
.FREE    RCPFREE  &FREE                                          TE7343
         AGO   .TPERM
.PERM    RCPPERM
         AGO   .TSPECI
.SPECIAL RCPSPEC &SPECIAL
.SVC99   ANOP
&DTUPO   SETA  &DTUPO-4
         SPACE
         MVI   &DYNP.TUP+&DTUPO,X'80'  SET HIGH ORDER BIT ON TEXT PTRS
         MVI   &DYNP.RBP,X'80'         SET HIGH ORDER BIT ON RB PTR
         RCPSR2 UNSAVE
&DTUPO   SETA  &DTUPO+4
         AIF   (NOT &DSECT).DYNA
         DROP  R1,R15                  DEACTIVATE ADDRESSABILITY
         LA    R14,4(R1)               POINT TO REQUEST BLOCK
.DYNA    DYNALLOC
         AIF   (NOT &DSECT).LTR
         USING &DYNP.RB,R14            SET UP ADDRESSABILITY
**       NOTE  R14 HAS RB ADDRESS, R15 HAS SVC 99 RETURN CODE        **
.LTR     AIF   ('&ERROR' EQ '').TDDTO
         LTR   R15,R15                 TEST RETURN CODE
         BNZ   &ERROR                  BRANCH IF NON ZERO
.TDDTO   AIF   ('&DDNTO' EQ '').RESERVE
&I       SETA  0
.DDNTOL  ANOP
&I       SETA  &I+1
         AIF   ('&DDNTO(&I)' EQ '').RESERVE
         AIF   ('&DDNTO(&I)'(1,1) EQ '(').DDNTOR
         MVC   &DDNTO(&I).(8),&DYNP.TU+&DDNRTO+2
         AGO   .DDNTOL
.DDNTOR  ANOP
&C       SETC  '&DDNTO(&I)'(2,K'&DDNTO(&I)-2)
         MVC   0(8,&C),&DYNP.TU+&DDNRTO+2
         AGO   .DDNTOL
.RESERVE AIF   (&DSECT).RESDS
         SPACE 1
***********************************************************************
**       RESERVE SPACE FOR DYNALLOC PARAMETER LIST                   **
***********************************************************************
         RCPDS
.SSP     ANOP
&DYNP.RBP DS   F                       SVC 99 REQ BLOCK POINTER
&DYNP.RB  DS   5F                      SVC 99 REQUEST BLOCK
&DYNP.TUP DS   CL&DTUPO                SPACE FOR TEXT POINTERS
         AIF   (&DTUO EQ 0).DTU21
&DYNP.TU  DS   CL&DTUO                 SPACE FOR TEXT UNITS
         AIF   (&DSNRTO EQ 0).TDDNRTO
&DSNRET  EQU   &DYNP.TU+&DSNRTO        OFFSET TO RETURNED DSN
.TDDNRTO AIF   ('&DDNRET' EQ '').DTU11
&DDNRET  EQU   &DYNP.TU+&DDNRTO        OFFSET TO RETURNED DDNAME
.DTU11   AIF   (&VOLRTO EQ 0).DTU12
&VOLRET  EQU   &DYNP.TU+&VOLRTO        OFFSET TO RETURNED VOLSER
.DTU12   AIF   (&DSRGRTO EQ 0).DTU10
&DSORGRT EQU   &DYNP.TU+&DSRGRTO       OFFSET TO RETURNED DSORG
         AGO   .DTU10
.DTU21   ANOP
&DYNP.TU  DS   0C                      NO SPACE NEEDED FOR TEXT UNITS
.DTU10   ANOP
&DYNP.LEN EQU  *-&DYNP.RBP             LENGTH OF SPACE USED
         AIF   (&DSECT).DSP
         RCPDS
         SPACE 3
         AGO   .EXIT
.RESDS   ANOP
         AIF   ('&DYNSP' EQ '').SP3
         DYNSPACE ADD
.SP3     SPACE
&DYNP.DS DSECT                         DSECT TO MAP SVC 99 DATA
         AGO   .SSP
.DSP     AIF   ('&MF(3)' EQ '').END1
&MF(3)   EQU   &DYNP.LEN               LENGTH OF AREA
.END1    ANOP
&SYSECT  CSECT
         SPACE 3
.EXIT    MEND
./ ADD NAME=CLEAR                                  21MAY81 06.59.29
*          DATA SET CLEAR      AT LEVEL 001 AS OF 03/04/80
         MACRO
&NAME    CLEAR &FIELD,&CHAR,&LENGTH
         LCLC  &FILL,&L
&L       SETC  'L'''
&FILL    SETC  '&CHAR'
         AIF   ('&CHAR' NE '').CHSPEC
&FILL    SETC  '40'
.CHSPEC  ANOP
&NAME    MVI   &FIELD,X'&FILL'   SET THE FIRST POSITION
         AIF   ('&LENGTH' EQ '').NOLSPEC
         MVC   &FIELD+1(&LENGTH),&FIELD  FILL THE ENTIRE FIELD
         MEXIT
.NOLSPEC ANOP
         MVC   &FIELD+1(&L&FIELD-1),&FIELD  FILL THE ENTIRE FIELD
         MEND
./ ADD NAME=CONV                                   21MAY81 06.59.29
*          DATA SET CONV       AT LEVEL 001 AS OF 03/04/80
         MACRO
&LABEL   CONV  &TO,&FROM,&LEN,&EDMASK,&SCOMP
         LCLC  &L,&FIRSTFR,&EDM,&COMP
         LCLA  &COUNT
&L       SETC  'L'''
         AIF   ('&LABEL' EQ '').NOLABEL  SKIP LABEL IF NOT PRESENT
&LABEL   DS    0H             SET THE LABEL
.NOLABEL ANOP
&EDM     SETC  'EDMASK'      DEFAULT EDIT MASK
         AIF   ('&EDMASK' EQ '').DEFMASK  IF NOT ENTERED USE DEFAULT
&EDM     SETC  '&EDMASK'     USE THE ENTERED VALUE
.DEFMASK ANOP
&COMP    SETC  'BLANKS'      DEFAULT COMPARISON CHARS
         AIF   ('&SCOMP' EQ '').DEFCOMP  NOT ENTERED, USE THE DEFAULT
&COMP    SETC  '&SCOMP'      GET WHAT THE GUY WANTS
.DEFCOMP ANOP
&FIRSTFR SETC  '&FROM'(1,1)   GET FIRST CHAR OF &FROM
         AIF   ('&FIRSTFR' EQ '(').REGISTR
         L     R1,&FROM       GET THE DATA TO CONVERT
         CVD   R1,DOUBLE      CONVERT TO PACKED DECIMAL
         AGO   .INDEC
.REGISTR ANOP
&COUNT   SETA  K'&FROM-2
&FIRSTFR SETC  '&FROM'(2,&COUNT)  STRIP THE PERRONS
         CVD   &FIRSTFR,DOUBLE   CONVERT TO PACKED DECIMAL
.INDEC   ANOP
         MVC   CHARS,&EDM     PUT IN THE EDIT MASK
         ED    CHARS,DOUBLE   CONVERT TO CHARACTERS
         AIF   ('&LEN' NE '').LENSET
         MVC   &TO,CHARS+16-&L&TO  MOVE IN THE NUMBER
         CLC   CHARS(16-&L&TO),&COMP   WAS THERE AN OVERFLOW?
         BE    *+10           NO, EVERYTHING WAS OK
         MVC   &TO,STARS      BAD NEWS, NOTE IT
         MEXIT
.LENSET  ANOP
         MVC   &TO.(&LEN),CHARS+16-&LEN MOVE IN THE NUMBER
         CLC   CHARS(16-&LEN),&COMP   WAS THERE AN OVERFLOW?
         BE    *+10           NO, EVERYTHING WAS OK
         MVC   &TO.(&LEN),STARS   BAD NEWS, NOTE IT
         MEND
./ ADD NAME=DYNSPACE                               21MAY81 06.59.29
*          DATA SET DYNSPACE   AT LEVEL 001 AS OF 03/05/80
         MACRO
&NAME    DYNSPACE &TYPE
.*
.*    THIS IS AN INNER MACRO TO ALLOC/FREE.
.*    IT IS CALLED TO   A) NAME AN AREA FOR THE PARMLIST
.*                      B) LOG THE VARIOUS AMOUNTS NEEDED BY
.*                         EACH, REMEMBERING THE LARGEST.
.*                      C) GENERATING A DS FOR THE LARGEST AMOUNT.
.*    THE FIRST TWO FUNCTIONS ARE INVOKED BY ALLOC/FREE MACROS ONLY,
.*    AND THE THIRD IS USED BY THE PROGRAMMER, EITHER EXPLICITLY,
.*    OR BY BEGINWKA, IF THE LATTER IS USED.
.*
.*     TO INVOKE THE NAMING FUNCTION, ALLOC/FREE GENERATE
.*     NAME DYNSPACE
.*     NOTE. THE NAMING OPERATION ONLY GENERATES A NAME ON THE
.*     FIRST CALL IN THE ASSEMBLY. THE NAME REMAINS THE SAME UNTIL
.*     DYNSPACE IS CALLED TO EXPAND INTO A DS.
.*
.*     THE SECOND FUNCTION IS INVOKED BY THE MACRO CALL
.*          DYNSPACE ADD
.*     (NO NAME FIELD AND ONE OPERAND)
.*     IT USES THE GLOBAL VARIABLES &DTUO AND &DTUPO TO CALCULATE
.*     THE SPACE FOR THIS REQUEST, AND UPDATES &DYNSPQ ONLY IF THE
.*     CURRENT REQUEST IS FOR A GREATER AMOUNT
.*
.*     THE THIRD FUNCTION IS INVOKED BY CALLING DYNSPACE WITH NO
.*     NAME OR OPERAND FIELD.
.*     THIS EXPANDS INTO A DEFINE STORAGE, CLEARS THE DYNSPACE NAME
.*     GLOBAL SETC, AND THE &DYNSPQ GLOBAL SETA.
.*     THUS, THE MACRO IS SERIALLY REUSABLE IN ALL FUNCTIONS.
.*
         GBLA  &DYNSPQ,&DTUO,&DTUPO,&RCPDYN
         GBLC  &DYNP,&DYNSP
         LCLA  &I
         AIF   ('&NAME' NE '').NAME
         AIF   ('&TYPE' EQ '').ALLOC
.*   THE ACCUMULATE FUNCTION IS REQUIRED
&I       SETA  24+&DTUO+&DTUPO         GET AMOUNT FOR THIS REQUEST
         AIF   (&I LE &DYNSPQ).EXIT    IF CURRENT < MAX, EXIT
&DYNSPQ  SETA  &I                      ELSE UPDATE CURRENT MAXIMUM
         MEXIT
.NAME    AIF   ('&DYNSP' NE '').EXIT   IF NAME ALREADY EXISTS, EXIT
&DYNSP   SETC  'DYNSP&RCPDYN'           ELSE GENERATE A NAME
.EXIT    MEXIT
.ALLOC   AIF   ('&DYNSP' EQ '').EXIT
*
**     RESERVE SPACE FOR ALLOC/FREE MACRO WORK AREA
*
&DYNSP   DS    0F,CL&DYNSPQ            RESERVE SPACE
&DYNSP   SETC  ''                      SET MAX QUANTITY TO 0
&DYNSPQ  SETA 0
         MEND
./ ADD NAME=ENTER                                  21MAY81 06.59.29
*          DATA SET ENTER      AT LEVEL 001 AS OF 03/04/80
         MACRO
&SUBR    ENTER &BASES,&SAVE,&CSECT
.*   THIS MACRO, USED WITH THE LEAVE MACRO, WILL PERFORM
.*   STANDARD HOUSEKEEPING FOR A CSECT, INCLUDING SAVEAREA
.*   CONSTRUCTION AND CHAINING, AND GETTING SOME STORAGE,
.*   IF THAT IS DESIRED.
.*   THE LEAVE MACRO WILL FREE THE GOTTEN STORAGE
.*   THE OPERANDS ARE
.*       &SUBR    ENTER  &BASES,&SAVE,&CSECT
.*    WHERE
.*       &SUBR    IS THE NAME OF THE CSECT
.*       &BASES   ARE THE BASE REGISTERS FOR THE ROUTINE
.*       &SAVE    IS THE LABEL FOR A SAVEAREA, OR A SUBPOOL
.*                AND LENGTH FOR THE GETMAIN
.*       &CSECT   TO CONTINUE AN EXISTING CSECT WITH ENTRY
.*                POINT &SUBR
.*
.*    EXAMPLES -
.*               ENTER 13,*
.*
.*       THIS WILL GENERATE NON-REENTRANT CODE, USING SAVEAREA
.*       AS THE SAVE AREA LABEL, AND REGISTER 13 FOR THE BASE
.*       REGISTER.
.*
.*       RENTMOD  ENTER (12,11),(,LDSECT)
.*
.*       THIS WILL GENERATE REENTRANT CODE WITH REGISTERS 12 AND
.*       11 FOR BASE REGISTERS.  A GETMAIN WILL BE DONE FOR THE
.*       DEFAULT SUBPOOL (0) WITH A LENGTH 'LDSECT'.
.*
         GBLC  &LV,&SP
         LCLA  &K,&N
         LCLC  &AREA,&B(16),&SUBNAME,&S
&SUBNAME SETC  '&SUBR'
         AIF   ('&SUBNAME' NE '').SUBSPEC
&SUBNAME SETC  'MAIN'         DEFAULT CSECT NAME
.SUBSPEC AIF   ('&CSECT' EQ '').NOTENT  IS IT AN ENTRY POINT?
&CSECT   CSECT
&SUBNAME DS    0F
         AGO   .CSSPEC
.NOTENT  ANOP
&SUBNAME CSECT
.CSSPEC  ANOP
         SAVE  (14,12),T,&SUBNAME   SAVE THE REGISTERS
         AIF   ('&BASES(1)' EQ '15' OR '&BASES' EQ '').R15SET
         AIF   ('&BASES(1)' EQ '13' AND '&SAVE' NE '').R15SET
         LR    &BASES(1),15  SET FIRST BASE REG
.R15SET  CNOP  0,4
&S       SETC  '&SUBNAME'
         AIF   (N'&SAVE EQ 2).P4   SUBPOOL, SIZE SPEC?
         AIF   ('&SAVE' EQ '').P3  NO SAVEAREA - DEFAULT
&AREA    SETC  '&SAVE'
         AIF   ('&SAVE' NE '*').P2
&AREA    SETC  'SAVEAREA'
.P2      AIF   ('&BASES(1)' NE '13').P4
&S       SETC  '*'
         USING &SUBNAME,15
         ST    14,&AREA+4
         LA    14,&AREA
         ST    14,8(13)
         L     14,&AREA+4
         ST    13,&AREA+4
         BAL   13,*+76        SKIP AROUND THE SAVEAREA
         DROP  15
         AGO   .P4
.P3      AIF   ('&BASES(1)' NE '13').P4
         MNOTE 8,'*** CONTENTS OF REG 13 ARE LOST.  NO SAVE AREA WAS ESX
               TABLISHED.'
.P4      AIF   ('&BASES(1)' NE '14' OR '&SAVE' EQ '').P5
         MNOTE 8,'*** MACRO RESTRICTION - REG 14 MUST NOT BE USED AS THX
               E FIRST BASE REGISTER IF A SAVE AREA IS USED.'
.P5      AIF   ('&BASES' EQ '').P9
&N       SETA  N'&BASES
.P6      ANOP
&K       SETA  &K+1
&B(&K)   SETC  ','.'&BASES(&K)'
         AIF   (N'&SAVE EQ 1).PE
         AIF   ('&BASES(&K)' NE '13').P7
         MNOTE 8,'*** REG 13 MAY NOT BE USED AS A BASE REGISTER FOR REEX
               NTRANT CODE.'
         AGO   .P7
.PE      AIF   ('&BASES(&K+1)' NE '13' OR '&SAVE' EQ '').P7
         MNOTE 8,'*** WHEN USING A SAVE AREA, REG 13 MAY NOT BE USED ASX
                A SECONDARY BASE REGISTER.'
.P7      AIF   ('&BASES(&K+1)' NE '').P6
         USING &S&B(1)&B(2)&B(3)&B(4)&B(5)&B(6)&B(7)&B(8)&B(9)&B(10)&B(X
               11)&B(12)&B(13)&B(14)&B(15)&B(16)
&K       SETA  1
         AIF   ('&BASES(1)' NE '13' OR '&SAVE' EQ '').P8
&AREA    DC    18F'0'
.P8      AIF   (&K GE &N).P10
         LA    &BASES(&K+1),X'FFF'(&BASES(&K))
         LA    &BASES(&K+1),1(&BASES(&K+1))
&K       SETA  &K+1
         AGO   .P8
.P9      USING &SUBNAME,15
.P10     AIF   (N'&SAVE GE 2).P13
         AIF   ('&SAVE' EQ '' OR '&BASES(1)' EQ '13').P12
         AIF   ('&SAVE'(1,1) GE '0').P16  NUMERIC MEANS A PASSED AREA
         ST    14,&AREA+4
         LA    14,&AREA
         ST    14,8(13)
         L     14,&AREA+4
         ST    13,&AREA+4
.P11     BAL   13,*+76       SKIP AROUND THE SAVEAREA
&AREA    DC    18F'0'
.P12     MEXIT
.P13     ANOP
&LV      SETC  '&SAVE(2)'
&SP      SETC  '0'
         AIF   ('&SAVE(1)' EQ '').P14
&SP      SETC  '&SAVE(1)'
.P14     CNOP  0,4          DO A GETMAIN FOR THE AREA
         BAL   1,*+8          POINT THE SP AND LV
ENT&SYSNDX DC  AL1(&SP)       SUBPOOL FOR THE GETMAIN
         DC    AL3(&LV)       LENGTH OF THE GETMAIN
         L     0,0(1)         GET THE DATA IN REG 1
         SVC   10             ISSUE THE GETMAIN
.*                            CHAIN THE SAVEAREAS
         ST    13,4(1)        PRIOR SAVEAREA ADDRESS TO MINE
         ST    1,8(13)        MY SAVEAREA ADDRESS TO HIS
         LR    2,13           KEEP THE SAVEAREA ADDRESS FOR REGS
         LR    13,1           THIS IS MY SAVEAREA
         AIF   ('&SAVE(3)' NE 'C').P15   CLEAR THE SAVEAREA?
         LA    4,12(13)       YES, POINT PAST THE CHAIN
         L     5,ENT&SYSNDX   GET THE SIZE
         LA    6,12           MINUS THE CHAIN AREA (12 BYTES )
         SR    5,6            GIVES THE AMOUNT TO CLEAR
         SR    7,7            CLEAR THE FROM COUNT AND CLEAR BYTE
         MVCL  4,6            WHEE, CLEAR IT OUT
         LM    0,7,20(2)      RESTORE THE ORIGINAL REGISTERS
         MEXIT
.P15     ANOP
         LM    0,2,20(2)      RESTORE ORIGINAL REGS
         MEXIT
.P16     L     1,&AREA+0(1)   NUMERIC &SAVE IMPLIES A PASSED SAVEAREA
         ST    13,4(1)        PRIOR SAVEAREA ADDRESS TO MINE
         ST    1,8(13)        MY SAVEAREA ADDRESS TO HIS
         LR    2,13           KEEP THE SAVEAREA ADDRESS FOR REGS
         LR    13,1           THIS IS MY SAVEAREA
         LM    0,2,20(2)      RESTORE ORIGINAL REGS
         MEND
./ ADD NAME=FREE                                   21MAY81 06.59.29
*          DATA SET FREE       AT LEVEL 001 AS OF 03/04/80
         MACRO
&NAME    FREE  &UNALC,&DSN=,&DDN=,&MEMBER=,&DISP=,&SYSOUT=,            X
               &ERROR=,&MF=AUTO,&PREFIX=,&FILE=,&F=,&DA=,&HOLD=
         GBLA  &RCPDYN            COUNTER FOR NO ENTRIES TO MACRO
         GBLA  &DTUO              OFFSET TO TEXT UNITS
         GBLA  &DTUPO             OFFSET TO TEXT UNIT POINTERS
         GBLB  &RCPS99(2)         TELL RCPDSECT NEED DSECTS
         GBLC  &DYNP              PREFIX FOR LABELS FOR THIS CALL
         GBLC  &DYNSP         NAME FOR AUTOMATIC STORAGE ALLOC
         LCLB  &DSECT             DSECT NEEDED FOR STORAGE, MF=E
         LCLC  &C,&T,&PAR
&RCPS99(1)     SETB           1
&RCPDYN  SETA  &RCPDYN+1          INCEREMENT COUNTER
&DYNP    SETC  'DYN&RCPDYN' SET DEFAULT PREFIX
&NAME    DS    0H
         AIF   ('&PREFIX' EQ '').TMF
         AIF   (K'&PREFIX LT 4).POK
         MNOTE 4,'PREFIX TOO LONG, 1ST 4 CHARS USED'
&DYNP    SETC  '&PREFIX'(1,4)
         AGO   .TMF
.POK     ANOP
&DYNP    SETC  '&PREFIX'
.TMF     AIF   ('&MF(1)' EQ 'G').GEN
         AIF   ('&MF' NE 'AUTO').TMFE
NAME     DYNSPACE             GET NAME FOR SPACE
         LA    R1,&DYNSP               LOAD ADDRESS OF PARAM LIST
         USING &DYNP.DS,R1             USE GENERATED DSECT
&T       SETC  'A'
&PAR     SETC  '&DYNSP+4'
&DSECT   SETB  1
         AGO   .START
.TMFE    AIF   ('&MF(2)' NE '').E2OK
         MNOTE 4,'PLIST ADDRESS OMITTED, MF=G USED'
         AGO   .GEN
.E2OK    ANOP
&DSECT   SETB  1
         AIF   ('&MF(2)' EQ '(').RMFE
         LA    R1,&MF(2)               LOAD PARAM LIST ADDRESS
&T       SETC  'A'
&PAR     SETC  '&MF(2)+4'
         USING &DYNP.DS,R1             USE GENERATED DSECT
         AGO   .START
.RMFE    AIF   ('&MF(2)' EQ '(R1)' OR '&MF(2)' EQ '(1)').START
&PAR     SETC  '&MF(2)'(2,K'&MF(2)-2)
&T       SETC  'R'
         LR    R1,&PAR                 LOAD S99 PARAM LIST ADDRESS
&PAR     SETC  '4&MF(2)'
         USING &DYNP.DS,R1             USE GENERATED DSECT
         AGO   .START
.GEN     LA    R1,&DYNP.RBP            LOAD ADDRESS OF S99 RBP
&T       SETC  'A'
&PAR     SETC  '&DYNP.RB'
.START   LA    R15,&DYNP.RB            LOAD ADDRESS OF S99 RB
         USING S99RB,R15
         ST    R15,0(R1)               AND STORE IN RB POINTER
         XC    4(&DYNP.LEN-4,R1),4(R1) ZERO PARAMETER LIST
         MVI   S99RBLN,20              MOVE IN LIST LENGTH
         MVI   S99VERB,S99VRBUN        MOVE IN VERB CODE
         LA    R14,&DYNP.TUP           LOAD ADDRESS OF TU POINTERS
         ST    R14,S99TXTPP            STORE ADDRESS IN S99 RB
         LA    R15,&DYNP.TU            POINT TO SPACE FOR TEXT UNITS
         USING S99TUNIT,R15
&DTUO    SETA  0
&DTUPO   SETA  0
         AIF   ('&DSN&DA' NE '').DSN
         AIF   ('&SYSOUT' NE '').SYSOUT
.TDDN    AIF   ('&DDN&FILE&F' NE '').DDN
.TDISP   AIF   ('&DISP' NE '').DISP
.TUNALC  AIF   ('&UNALC' NE '').PERM
.THOLD   AIF   ('&HOLD' NE '').HOLD
         AGO   .SVC99
.DSN     RCPFDSN &DSN&DA,&MEMBER
         AGO   .TDDN
.SYSOUT  RCPFSYS &SYSOUT
         AGO   .TDDN
.DDN     RCPFDDN &DDN&F&FILE
         AGO   .TDISP
.DISP RCPFDISP &DISP
         AGO   .TUNALC
.PERM    RCPUNALC
         AGO   .THOLD
.HOLD    RCPFHOLD &HOLD
.SVC99   ANOP
&DTUPO   SETA  &DTUPO-4
         SPACE
         MVI   &DYNP.TUP+&DTUPO,X'80'  SET HIGH ORDER BIT ON TEXT PTRS
         MVI   &DYNP.RBP,X'80'         SET HIGH ORDER BIT ON RB PTR
         RCPSR2 UNSAVE
&DTUPO   SETA  &DTUPO+4
         AIF   (NOT &DSECT).DYNA
         DROP  R1,R15                  DEACTIVATE ADDRESSABILITY
.DYNA    DYNALLOC
         AIF   ('&ERROR' EQ '').RESERVE
         AIF   ('&PAR' EQ '').LTR
         L&T   R14,&PAR                 LOAD REG 14 WITH ADDRESS OF RB
         AIF   (NOT &DSECT).LTR
         USING &DYNP.RB,R14            SET UP ADDRESSABILITY
.LTR     LTR   R15,R15                 TEST RETURN CODE
         BNZ   &ERROR                  BRANCH IF NON ZERO
**       NOTE.  R14 POINTS TO REQUEST BLOCK, R15 HAS RETURN CODE     **
.RESERVE AIF   (&DSECT).RESDS
         SPACE
***********************************************************************
**       RESERVE SPACE FOR DYNALLOC DATA                             **
***********************************************************************
         RCPDS
.SSP     ANOP
&DYNP.RBP DS   F                       SVC 99 REQ BLOCK POINTER
&DYNP.RB  DS   5F                      SVC 99 REQUEST BLOCK
&DYNP.TUP DS   CL&DTUPO                SPACE FOR TEXT POINTERS
         AIF   (&DTUO EQ 0).DTU11
&DYNP.TU  DS   CL&DTUO                 SPACE FOR TEXT UNITS
         AGO   .DTU10
.DTU11   ANOP
&DYNP.TU  DS   0C                      NO SPACE NEEDED FOR TEXT UNITS
.DTU10   ANOP
&DYNP.LEN EQU  *-&DYNP.RBP             LENGTH OF SPACE USED
         AIF   (&DSECT).DSP
         RCPDS
         SPACE 3
         AGO   .EXIT
.RESDS   ANOP
         AIF   ('&DYNSP' EQ '').SP3
         DYNSPACE ADD
.SP3     SPACE
&DYNP.DS DSECT                         DSECT TO MAP SVC 99 DATA
         AGO   .SSP
.DSP     AIF   ('&MF(3)' EQ '').END1
&MF(3)   EQU   &DYNP.LEN               LENGTH OF AREA
.END1    ANOP
&SYSECT  CSECT
         SPACE 3
.EXIT    MEND
./ ADD NAME=LEAVE                                  21MAY81 06.59.29
*          DATA SET LEAVE      AT LEVEL 001 AS OF 03/04/80
         MACRO
&NAME    LEAVE &EQ,&RC=
         GBLC  &LV,&SP
&NAME    LR    2,13
         L     13,4(13)
         AIF   ('&RC' EQ '').L0
         LA    15,&RC         LOAD THE RETURN CODE
.L0      STM   15,1,16(13)  STORE RETURN REGS
         AIF   ('&LV' EQ '').L1  ANYTHING TO FREE?
         FREEMAIN R,LV=&LV,SP=&SP,A=(2)  FREE THE AREA
.L1      RETURN (14,12),T     RETURN FROM WHENCE WE CAME
         AIF   ('&EQ' NE 'EQ').L4  REGISTERS TOO?