*          DATA SET AM026000   AT LEVEL 002 AS OF 02/08/78
*          DATA SET AM026000   AT LEVEL 001 AS OF 02/07/78
         MACRO
&NAME    #TSOMSG &MSG,&OFFSET=0,&LENGTH=
         MNOTE *,'       #TSOMSG   VERSION 001 09/22/75  09/22/75  GPW'
.**********************************************************************
.*                                                                    *
.* #TSOMSG                                                            *
.*                                                                    *
.* FUNCTION        GENERATE A MESSAGE LINE IN PUTLINE FORMAT WITH     *
.*                 LENGTH AND OFFSET HEADERS.                         *
.*                                                                    *
.* DESCRIPTION     THE USER SPECIFIES A MESSAGE TEST ENCLOSED IN      *
.*                 SINGLE QUOTES.  AN OFFSET MAY ALSO BE SPECIFIED.   *
.*                 A MESSAGE IN PUTLINE FORMAT (WITH HALFWORD HEADERS *
.*                 CONTAINING THE TOTAL LENGTH OF HEADERS AND         *
.*                 MESSAGE AND OFFSET) IS CREATED.  THE LENGTH OF     *
.*                 THE MESSAGE IS ROUNDED UP TO THE NEXT FULLWORD     *
.*                 MULTIPLE.  THE USER MAY OPTIONALLY SPECIFY THE     *
.*                 LENGTH OF THE MESSAGE TEXT.                        *
.*                                                                    *
.* SYNTAX          NAME     #TSOMSG 'MESSAGE-TEXT'                    *
.*                                  OFFSET=N                          *
.*                                  LENGTH=N                          *
.*                                                                    *
.*                 MESSAGE-TEXT IS THE MESSAGE TO BE GENERATED.       *
.*                                                                    *
.*                 OFFSET       SPECIFIES THE VALUE OF THE OFFSET     *
.*                              HEADER HALFWORD.  DEFAULT IS 0.       *
.*                                                                    *
.*                 LENGTH       SPECIFIES THE LENGTH IN BYTES OF      *
.*                              THE MESSAGE TEXT.  THIS LENGTH DOES   *
.*                              NOT INCLUDE THE HEADER LENGTHS.  IF   *
.*                              LENGTH IS NOT SPECIFIED, THE LENGTH   *
.*                              WILL BE THE LENGTH OF THE MESSAGE     *
.*                              TEXT ROUNDED TO THE NEXT FULLWORD.    *
.*                                                                    *
.* ERRORS          NO ERROR MESSAGES ARE DISPLAYED.                   *
.*                                                                    *
.* EXAMPLE         GENERATE A TSO MESSAGE.  LENGTH IS NOT SPECIFIED,  *
.*                 AND OFFSET IS 0.                                   *
.*                                                                    *
.*                 ERROR1   #TSOMSG 'NAME NOT FOUND'                  *
.*                                                                    *
.*                 GENERATE A DUMMY MESSAGE.  THE MESSAGE TEXT WILL   *
.*                 BE FILLED IN BY THE PROGRAM.  THE LENGTH OF THE    *
.*                 MESSAGE MAY BE UP TO 120 CHARACTERS.               *
.*                                                                    *
.*                 OUTLINE  #TSOMSG ' ',LENGTH=120                    *
.*                                                                    *
.* GLOBAL SYMBOLS                                                     *
.*                                                                    *
.*                 NONE                                               *
.*                                                                    *
.* MACROS CALLED                                                      *
.*                                                                    *
.*                 NONE                                               *
.*                                                                    *
.**********************************************************************
.*
         LCLA  &LEN,&LEN2
.*
         AIF   ('&LENGTH' EQ '').CALCLEN
&LEN     SETA  &LENGTH
         AGO   .GETLEN2
.CALCLEN ANOP
&LEN     SETA  K'&MSG-2
&LEN     SETA  ((&LEN-1)/4+1)*4
.GETLEN2 ANOP
&LEN2    SETA  &LEN+4
&NAME    DC    H'&LEN2,&OFFSET',CL&LEN.&MSG
         MEND
