*          DATA SET AM012500   AT LEVEL 001 AS OF 11/29/74
         MACRO
&NAME    DISPLAY &REC,&DDNAME=SYSOUT,&RECFM=FA,&BLKSIZE=133
.*             AUTHOR.   DON HIGGINS.
.*             DATE.     11/18/74.
.*             REMARKS.  DISPLAY RECORD IF DD AVAILABLE.
.*                       REC MAY BE REGISTER OR LABEL OF REC.
.*                      R15=0 IS SUCCESSFUL
.*                      R15=4 NO DD FOUND
&NAME    TAG
DSP1&SYSNDX B  *+4
         FINDDD =CL8'&DDNAME'
         IF    (LTR,R1,R1,Z)
               WTO  '&DDNAME NOT FOUND'
               MVC  DSP1&SYSNDX+2(2),=S(DSP2&SYSNDX)
DSP2&SYSNDX    LA   R15,4
               B    DSP4&SYSNDX
         FI
         MVC   DSP1&SYSNDX+2(2),=S(DSP3&SYSNDX)
         OPEN  (&DDNAME,(OUTPUT))
         B     DSP3&SYSNDX
&DDNAME  DCB   DSORG=PS,MACRF=PM,DDNAME=&DDNAME,                       X
               RECFM=&RECFM,BLKSIZE=&BLKSIZE
DSP3&SYSNDX TAG
         AIF   ('&REC'(1,1) EQ '(').REG
         LA    R0,&REC
         AGO   .PUT
.REG     ANOP
         LR    R0,&REC
.PUT     ANOP
         PUT   &DDNAME
         ZR    R15
DSP4&SYSNDX TAG
         MEND
