*          DATA SET AM038000   AT LEVEL 002 AS OF 02/09/78
*          DATA SET AM038000   AT LEVEL 001 AS OF 02/09/78
         MACRO
&NAME    IKJEGSPL &RTRY=,&ABNTB=,&MODNM=,&TNM=*
.**********************************************************************
.*                                                                    *
.*  IKJEGSPL IS USED TO GENERATE A LIST OF INFORMATION TO BE USED BY  *
.*  THE ESTAE EXIT ROUTINE IN AN ABEND SITUATION.  THIS LIST WILL     *
.*  CONTAIN THE FOLLOWING INFORMATION:                                *
.*       RETRY ROUTINE ADDRESS;                                       *
.*       ABEND IC TABLE ADDRESS;                                      *
.*       MODULE ENTRY POINT;                                          *
.*       MODULE NAME;                                                 *
.*       MODULE TEXT NAME.                                            *
.*                                                                    *
*   STATUS -- VERSION NO. 1 - OS/VS2 RELEASE NO. 02                   *
*   CHANGE LEVEL -- 01 - DATE 1-1-73                                  *
.*                                                                    *
.**********************************************************************
         SPACE 1
         LCLA  &LENTNM
         LCLC  &A1
&LENTNM  SETA  K'&TNM
&A1      SETC  '*'
         AIF   (T'&RTRY EQ 'O').MSG1
         AIF   (T'&ABNTB EQ 'O').MSG2
         AIF   (T'&MODNM EQ 'O').MSG3
         AIF   (T'&MODNM NE 'J').MSG3
&NAME    DS    0F                 EXIT ROUTINE PARAM LIST
         DC    A(&RTRY)           RETRY ROUTINE ADDRESS
         DC    A(&ABNTB)          ABEND IC TABLE ADDRESS
         DC    A(&MODNM)          ENTRY POINT FOR THIS MODULE
         DC    CL8'&MODNM'        MODULE NAME
         DS    0X   **THE FOLLOWING IS AN INSERT FOR THE EXIT RTN MSG**
         DC    AL2(&LENTNM+5)     LENGTH OF MODULE TEXT NAME + 5
         DC    AL2(0)             THIS FIELD IS REQUIRED BY I/O
         DC    C'&TNM '      MODULE TEXT NAME
         MEXIT
.MSG1    MNOTE 12,'SET ***RTRY&A1 EQUAL TO YOUR RETRY RTN  ADDR'
         MEXIT
.MSG2    MNOTE 12,'SET ***ABNTB&A1 EQUAL TO YOUR ABEND TABLE ADDR'
         MEXIT
.MSG3    MNOTE 12,'SET ***MODNM&A1 EQUAL TO YOUR MODULE CSECT NAME'
.END     MEND
