*          DATA SET AM011800   AT LEVEL 001 AS OF 10/03/74
         MACRO
&NAME    LOGICAL
.*             PGMID.    LOGICAL VARIABLE DEFINITION AND ENUMERATION
.*             AUTHOR.   DON HIGGINS.
.*             DATE.     09/27/74.
.*             REMARKS.  DEFINES A LOGICAL VARIABLE AS A ONE BYTE
.*                       AL1 FIELD WITH AN INITIAL VALUE AND STORES
.*                       IN GLOBAL TABLE POSSIBLE VALUES BY NAME.
.*                       ALL NAMES ARE EQUATED TO UNIQUE VALUES FOR
.*                       USE IN TEST AND SET STATEMENTS.
         GBLC  &LOGICN(100)
         GBLA  &LOGICV
         LCLA  &N,&S,&SL
&N       SETA  N'&SYSLIST(2)
.L1      ANOP
&S       SETA  &S+1
         AIF   (&S GT &N).GENDC
&SL      SETA  0
.L2      ANOP
&SL      SETA  &SL+1
         AIF   (&SL GT &LOGICV).GENEQU
         AIF   ('&SYSLIST(2,&S)' EQ '&LOGICN(&SL)').L1
         AGO   .L2
.GENEQU  ANOP
&LOGICV  SETA  &LOGICV+1
&LOGICN(&LOGICV) SETC '&SYSLIST(2,&S)'
&SYSLIST(2,&S) EQU &LOGICV
         AGO   .L1
.GENDC   ANOP
&NAME    DC    AL1(&SYSLIST(1))
         MEND
