         MACRO
&NAME    TAG
&NAME    DS    0H
         MEND
