         MACRO
&NAME    TCDPGEN &CODE,&DESC,&TAG
         LCLC  &TYPE                   DEFINE & INITIALIZE TYPE
         LCLA  &SIZE                   DEFINE & INITIALIZE SIZE
&TYPE    SETC  T'&TAG                  SET TYPE
&SIZE    SETA  L'&TAG                  SET LENGTH OF DATA ELEMENT
&NAME    DC    CL3'&CODE'              NUMERIC CODE ENTERED
         DC    CL6'&DESC'              APLHA DESCRIPTION OF CODE
         DC    CL1'&TYPE'              PACKED OR CHAR FORMAT
         DC    AL1(&SIZE)              LENGTH OF DATA ELEMENT
         DC    SL2(&TAG)               DATA ELEMENT TAG
         MEND
