         MACRO
&NAME    WTCMSG &MSG
         LCLA  &L
.*             AUTHOR.   DON HIGGINS.
.*             DATE.     02/10/71.
.*             REMARKS.  GENERATE MESSAGE FOR CTL1 VIA QTAM.
&NAME    DS    0H
&L       SETA  K'&MSG-2
         DC    AL2(&L+2+6)
         DC    AL1(STX,NUL,NL)
         DC    CL&L&MSG
         DC    AL1(NL,ETX,EOT)
         MEND
