         MACRO
&NAME    BEGINRPF
         GBLB  &REGSW
         AIF   (&REGSW).A01
&REGSW   SETB  1
R0       EQU   0
R1       EQU   1
R2       EQU   2
R3       EQU   3
R4       EQU   4
R5       EQU   5
R6       EQU   6
R7       EQU   7
R8       EQU   8
R9       EQU   9
R10      EQU   10
R11      EQU   11
R12      EQU   12
R13      EQU   13
R14      EQU   14
R15      EQU   15
.A01     ANOP
&NAME    CSECT
         STM   R14,R12,12(R13)     SAVE REGISTERS
         USING &NAME,R15
         LA    R14,&NAME+24        SAVE AREA
         ST    R13,&NAME+28
         ST    R14,8(0,R13)
         LR    R13,R14
         CNOP  0,4
         B     *+100
         DC    18F'-1'
         DC    CL8'&NAME',CL8'&SYSDATE',CL8'&SYSTIME'
         DS    0H
         DROP  R15
         USING &NAME+24,R13        GET ADDRESSABILITY
         MEND
RPFEDIT  TITLE 'MVS F U L L S C R E E N   EDITOR'
*---------------------------------------------------------------------*
*                                                                     *
*        MODULE:        RPFEDIT.                                      *
*                                                                     *
*        FUNCTION:      LOAD THE DATASET SPECIFIED BY DDNAME RPFWORK  *
*                       INTO THE EDIT WORKSPACE AND ALLOW THE USER    *
*                       TO UPDATE THE WORKSPACE IN FULLSCREEN MODE    *
*                       A CARD IMAGE DATASET.                         *
*                                                                     *
*        SUBCOMMANDS:    1. SCF:     SCROLL FORWARD FULL/HALF/LINE/MAX*
*                        2. SCB:    SCROLL BACKWARD FULL/HALF/LINE/MAX*
*                        3. L +N:    SKIP FOREWARD N LINES.           *
*                        4. L -N:    SKIP BACKWARD N LINES.           *
*                        5. L N:    MAKE LINE N THE FIRST LINE        *
*                           ON THE SCREEN.                            *
*                        6. R M,N:  REPEAT LINE M N TIMES OR REPEAT   *
*                           CURRENT LINE IF M='*'                     *
*                        7. DEL N,M: DELETE LINES N-M                 *
*                        7. DEL *,N  DELETE N LINES STARTING WITH     *
*                           CURRENT LINE; IF N=99999999 THE CURRENT   *
*                           TILL THE END OF THE WORKSPACE WILL BE     *
*                           DELETED.                                  *
*                        8. I M,N:  INSERT N LINES AFTER LINE M OR IN *
*                           SERT AFTER CURRENT LINE IF M='*'          *
*                        9. SAVE (FORCE): SAVE WORKSPACE              *
*                       10. REN(UM) RENUMBER WORKSPACE AND GOTO 'NUM' *
*                       11. UNN(UM) REMOVE NUMBERS AND GOTO NONUM MODE*
*                       12. NUM:    SAME AS RENUMBER                  *
*                       13. NONUM:  GO TO 'NONUM' MODE                *
*                       14. SCR:    SCROLL RIGHT (COLUMNS 9-80)       *
*                       15. SCL:    SCROLL LEFT (COLUMNS 1-72)        *
*                       16. COB:    ALIGN ON COBOL  (COLUMNS 07-78)   *
*                       17. NOCOB:  REMOVE COBOL (ALIGN LEFT)         *
*                       18. SUB:    SUBMIT THE WORKSPACE.             *
*                       19. CO LN1,LN2,LN3: COPY LN1-LN2 BEHIND LN3.  *
*                       20. MO LN1,LN2,LN3: COPY LN1-LN2 BEHIND LN3   *
*                           AND DELETE THE ORIGINAL LN1-LN2           *
*                       21. F /STRING/: MAKE THE LINE, WHICH CONTAINS *
*                           THE 'STRING' THE FIRST LINE ON YOUR SCREEN*
*                       21  F /STRING/N,M FIND STRING IN RANGE N-M    *
*                       22  O /STRING/ THE OPPOSITE OF FIND (OMIT)    *
*                       23. END:    TERMINATE EDIT.                   *
*                       23. END SAVE: TERMINATE EDIT AND SAVE         *
*                       24. TOP:    DISPLAY 1ST SCREEN.               *
*                       25. BOTTOM: DISPLAY LAST SCREEN.              *
*                       26. PFK:    RESET PFK DEFINITIONS.            *
*                       27. HELP:   DISPLAY HELP SCREEN.              *
*                       28. C /AA/BBB/(A) CHANGE CHAR STRINGS.        *
*                       28. C /AA/BBB/N,M CHANGE CHAR STRINGS IN RANGE*
*                           N-M                                       *
*                       29. NULLS: REMOVE TRAILING BLANKS ON SCREEN   *
*                       30. NONULLS: RESET NULLS.                     *
*                       31. CAPS:    XLATE LOWERCASE TO CAPS          *
*                       32. ASIS:    LET WORKSPACE IN 'ASIS' MODE     *
*                       34. HAR XXXXXX N,M,<NOTITLE>,<NOEJECT>,<C=CC> *
*                           PRINT LINES N,M ON PRINTER XXXXX IF N-M   *
*                           ARE OMITTED THE SCREEN WILL BE PRINTED.   *
*                       35. SCOPE N,M SET EDIT SCOPE TO COLS N,M      *
*                       36. FILL /STRING/ FILL ED.SCOPE WITH 'STRING' *
*                           STARTING WITH CURRENT LINE TILL END       *
*                       37. FILL /STRING/N,M FILL CMD FOR LINERANGE   *
*                       38. LC N,M SET LINES N,M TO ASIS(WITHIN SCOPE)*
*                       39. UC N,M SET LINES N,M TO CAPS(WITHIN SCOPE)*
*                       40. SORT: SORT WORKSPACE (SET BY 'SCOPE')     *
*                       41. EOF KEY CAN BE USED TO DELETE LINE FROM WS*
*                       42. &: RESET PREVIOUS COMMAND IN COMMAND AREA *
*                       43. CANCEL: STOP EDIT WITHOUT SAVE            *
*                       44. RESET : RESET PENDING LINECOMMANDS.       *
*                       45. COPY: APPEND ANOTHER MEMBER OR DATASET.   *
*                       46. OUT:    INVOKE OUTPUT PROCESSOR           *
*                       47. JCL:    INVOKE JCL CHECKER                *
*                       48. =N/=N.N RETURN TO RPFMAIN AND EXEC     @RP1
*                           OPTION 'N' OR OPTION 'N.N'             @RP1
*                       49. RETRIEVE last command from buffer      @rp6
*                       50. CUT: add range of lines to 'clipboard' @rpb
*                       51. PASTE: copy 'clipboard' after line 'A' @rpb
*                           of before line-1 (TT) or after last    @rpb
*                           record (BB)                            @rpb
*                                                                     *
*        NOTES:         THE SUBCOMMANDS WILL BE REPEATED IF THE       *
*                       COMMAND IS PREFIXED WITH AN '&'               *
*                       THE CURRENT LINE IS ALLWAYS THE FIRST LINE    *
*                       ON YOUR SCREEN.                               *
*                       LINE = 0 MEANS BEFORE THE FIRST LINE.         *
*                                                                     *
*        LINECOMMANDS:   1. A ...... DESTINATION AFTER THIS LINE.     *
*                        2. BB ..... DESTINATION AFTER LAST LINE.     *
*                        3. TT ..... DESTINATION BEFORE FIRST LINE.   *
*                        4. C ...... COPY THIS LINE.                  *
*                        5. CC-CC .. COPY THESE LINES.                *
*                        6. CB ..... COPY FROM THIS LINE UNTIL AND    *
*                                    INCLUDING LAST LINE.             *
*                        7. CT ..... COPY FROM FIRST LINE UNTIL AND   *
*                                    INCLUDING THIS LINE.             *
*                        8. M ...... MOVE THIS LINE.                  *
*                        9. MM-MM .. MOVE THESE LINES.                *
*                       10. MB ..... MOVE THIS LINE UNTIL AND INCLU-  *
*                                    DING LAST LINE.                  *
*                       11. MT ..... MOVE FIRST LINE UNTIL AND INCLU- *
*                                    DING THIS LINE.                  *
*                       12. D ...... DELETE THIS LINE.                *
*                       13. DD-DD .. DELETE THESE LINES.              *
*                       14. DB ..... DELETE THIS LINE UNTIL AND IN-   *
*                                    CLUDING LAST LINE.               *
*                       15. DT ..... DELETE FIRST LINE UNTIL AND IN-  *
*                                    DING THIS LINE.                  *
*                       16. IX ..... INSERT X LINES AFTER THIS LINE.  *
*                       17. RX ..... REPEAT THIS LINE X TIMES.        *
*                       18. RR-RR... REPEAT BLOCK OF LINES            *
*                       19. UC...... XLATE LINE TO CAPITALS           *
*                       20. LC...... XLATE LINE TO ASIS               *
*                       21. UCC..UCC XLATE BLOCK OF LINES TO CAPS     *
*                       22. LCC..LCC XLATE BLOCK OF LINES TO ASIS     *
*                       23. RESET .. RESET PENDING LINECOMMANDS.      *
*                                                                     *
*        SUBROUTINES:   RPFEDITL: LOAD THE DATASET INTO THE WORKSPACE.*
*                       RPFSUB:   SUBMIT THE WORKSPACE                *
*                       RPFTSO:   TSO commands                        *
*                       RPFOUT:   Output processor                    *
*                       RPFPFK:   PFK definition module               *
*                       RPFFIND:  SUBROUTINE FOR 'F' AND 'O' SUBCOMM. *
*                       RPFFILL:  SUBROUTINE FOR 'FILL', 'LC', 'UC'   *
*                       RPFCHNG:  SUBROUTINE FOR 'C' SUBCOMMAND       *
*                       RPFHCPY:  SUBROUTINE FOR 'HAR' SUBCOMMAND     *
*                       RPFHELP:  ROUTINE FOR 'HELP' SUBCOMMAND       *
*                                                                     *
*        RETURNCODES: (SET IN RTNCODE)                                *
*                       00. EXECUTION ALRIGTH                         *
*                       04. LOAD TERMINATED AFTER END OF WORKSPACE    *
*                       08. NOTHING LOADED, WORKSPACE FULL            *
*                       12. NOTHING LOADED, FILE EMPTY                *
*                       16. EDIT CANCELED, WORKSPACE EMPTY            *
*                       20. EDIT CANCELED, DATASET/MEMBER IN USE      *
*                                                                     *
*        MODIFICATIONS:                                               *
*        2002/07/17: RPR ADD '=N'/'=N.N' COMMAND                   @RP1
*        2002/08/01: RPR PRESERVE EMPTY WORKSPACE IF ALL LINES DELETED*
*        2002/08/05: RPR Allow editing empty dataset or member     @rp3
*        2002/08/24: Block editing Variable length data            @rp4
*        2002/08/31: Positioning problems solved in Delete         @rp5
*        2002/09/30: RETRIEVE command added                        @rp6
*        2002/10/20: AUTOSAVE param checked if END command given   @rp7
*        2002/10/27: Support command 'nnnnn' together with the SCF or *
*                    SCB pfkey. (nnnnn is 1-5 figures (0-9)        @rp8
*        2003/02/06: Only MDT of changed lines set.                @rp9
*        2003/06/20: Add End of Data Marker and protect unused flds@rpa
*        2003/12/04: Cut and Paste subcommand added                @rpb
*        2004/01/04: Abend 0c4 at X'14e8' solved with trunc workspc@rpc
*        2005/02/08: "FIND" along with "F" command allowed         @rpd
*                    and set only changed flag if 'c' command is   @rpd
*                    succesful                                     @rpd
*        2005/02/12: Allow TOP and BOTTOM commands along with line    *
*                    commands                                      @rpe
*        2006/03/16: Fill end of screen with blanks instead nulls  @rpf
*        2006/09/29: Loop solved in PFK routine                    @rpg
*        2008/08/29: Loop solved in VIEWCUT if a CUT command is    @rph
*                    given with "MM" line commands                 @rph
*        2008/09/01: The line commands can be entered in any place @rpj
*                    in the line number field                      @rpj
*                                                                     *
*----------------------------------------- (C)-2008 SKYBIRD SYSTEMS --*
         SPACE 2
RPFEDIT  BEGINRPF
         LA    R12,2048(R13)
         LA    R12,2048(R12)
         LA    R10,2048(R12)
         LA    R10,2048(R10)
         LA    R9,2048(R10)
         LA    R9,2048(R9)
         USING RPFEDIT+24,R13,R12,R10,R9
         L     R11,0(R1)               ADDRESS COMMAREA INTO REG.11
         ST    R11,SUBLIST             REG.11 INTO PARMLIST
         USING COMMAREA,R11
         MVC   RTNCODE,F0000           RESET RTNCODE
         L     R15,=V(SRCHLINE)        SEARCH LINE NBR ROUTINE
         ST    R15,EPSRCH              SAVE EP IN COMMAREA
         NI    INFCODE3,255-$EDTCOPY   SET COPY FLAG OFF
*---------------------------------------------------------------------*
*        FLAG $EDTCOPY WILL BE SET IF A COPY COMMAND IS GIVEN         *
*        HERE THE FLAG WILL BE RESET UPON ENTRY OF RPFEDIT            *
*---------------------------------------------------------------------*
         NI    INFCODE4,255-$SAMEDS-$CHANGED
         MVI   MSG5,C'-'               CLEAR
         MVC   MSG5+1(L'MSG5-1),MSG5        MESSAGE
         XC    LFLAGS,LFLAGS           Reset flgs pending linecmds @rpb
         MVC   LLINES,BLANKS           RESET LINENUMBER S          @rpb
         MVC   SCR5ADDR+1(2),=X'C1D8'  R02,C09 IS DEFAULT CURSOR ADDR
         MVI   SW,X'00'                INIT SW
         MVC   SCR5ASIS,INTLOW         DEFAULT CAPS
         MVC   SCR5NULL,INTLOW         DEFAULT NONULLS
         MVC   SCR5STA(6),=C'Update'   DEFAULT NO INPUT
         MVC   SCR5NON,INTLOW          DEFAULT NUMBERED
         MVC   SCR5TRUN,INTLOW         INIT NOT TRUNCATED
         MVC   SCR5XLAT,INTLOW         INIT NOT XLATED
         MVC   ALG5TOP+7(72),TXT5LFT   MOVE DEFAULT SCALE LINE
         TM    INFCODE,$COBOL          COBOL ALIGNMENT REQUESTED ?
         BNO   START03                 NO: PROCEED
         MVC   ALG5TOP+7(72),TXT5COB   MOVE COBOL SCALE LINE
START03  EQU   *
         XC    SCOPENUM,SCOPENUM       BUILD DEFAULT SCOPE COMMAND
         BAL   R14,SCOPE               DEFAULT SCOPE INTO SCREEN
         NI    SW,255-$NULLS           DEFAULT NONULLS
         CLC   DEFNULL,=C'YES'         NULLS ???
         BNE   START09                 NO: BRANCH
         OI    SW,$NULLS               ELSE MARK NULLS
         MVC   SCR5NULL,INTHIGH        HIGHLIGHT OPTION
START09  EQU   *
         CLC   COMMSIZE,=H'24'         24 LINES GOTTEN
         BE    START19                 YES: NORMAL 24X80 DISPLAY
         CLC   COMMSIZE,=H'32'         32 LINES GOTTEN ?
         BE    START17                 YES: 3278/79 MODEL 3
         CLC   COMMSIZE,=H'43'         43 LINES GOTTEN ?
         BE    START15                 YES: 3278/79 MODEL 4
         B     START19                 NOT ONE OF ABOVE MODEL 2 DISPLAY
START15  EQU   *
         MVC   SCR1WCC(2),=X'277E'     GENERATE WRITE ALTERNATE
         MVC   SCRPAGE,=C'40  '        40 LINES TO DISPLAY
         MVC   SCRHALF,=C'20  '        20 LINES IF SCROLL IS HALF
         MVC   #LINES,=H'40'
         LA    R4,LINES40              TOTAL NUMBER OF BYTES ON SCREEN
         STH   R4,SCRLEN               STORE THE RESULT
         LA    R4,SCR543               LOAD THE TPUT LENGTH
         ST    R4,TPUTLEN              AND SAVE IT
         B     START21
START17  EQU   *
         MVC   SCR1WCC(2),=X'277E'     GENERATE WRITE ALTERNATE
         MVC   SCRPAGE,=C'29  '        29 LINES TO DISPLAY
         MVC   SCRHALF,=C'15  '        15 LINES IF SCROLL IS HALF
         MVC   #LINES,=H'29'
         LA    R4,LINES29              TOTAL NUMBER OF BYTES ON SCREEN
         STH   R4,SCRLEN               STORE THE RESULT
         LA    R4,SCR532               LOAD THE TPUT LENGTH
         ST    R4,TPUTLEN              AND SAVE IT
         B     START21                 OK BRANCH
START19  EQU   *
         MVC   SCR1WCC(2),=X'27F5'     GENERATE WRITE
         MVC   SCRPAGE,=C'21  '        21 LINES TO DISPLAY
         MVC   SCRHALF,=C'11  '        11 LINES IF SCROLL IS HALF
         MVC   #LINES,=H'21'
         LA    R4,LINES21              TOTAL NUMBER OF BYTES ON SCR.
         STH   R4,SCRLEN               STORE THE RESULT
         LA    R4,SCR524               LOAD THE TPUT LENGTH
         ST    R4,TPUTLEN              AND SAVE IT
START21  EQU   *
         MVC   FIRSTSCR,FIRSTREC
         MVC   LASTSCR,FIRSTREC
         MVC   SCROLL2+08(4),=C'CSR '  DEFAULT CURSOR SCROLL
         MVC   SCROLL5+08(4),=C'CSR '  DEFAULT CURSOR SCROLL
         MVC   SCROLNUM(4),=C'CSR '    21/29/40 LINES
         MVC   COPMEM,MEMBER           SAVE MEMBER-NAME
         MVC   COPYDSN,DSNAME          SAVE DATASET NAME
         MVC   COPYVOL,VOLUME          SAVE VOLUME
         MVC   NUMFLD(8),MEMBER        MEMBER INTO NUMFLD
         TR    NUMFLD(8),COMTRTAB      XLATE UNPRINTABLES FROM NAME
         MVC   SAVEMBR,NUMFLD          SAVE XLATED MEMBERNAME
         MVC   SCR5MEM,NUMFLD          MEMBER INTO SCREEN
         TM    INFCODE,NOTLOAD         EDIT CURRENT WORKSPACE ?
         BO    CODE00                  YES: GO TO EDITOR
         TM    INFCODE,DATAENT         DATA ENTRY ?
         BZ    LINK                    NO: LINK TO XPFEDITL
CREATE   DS    0H                                                  @rp3
         NI    INFCODE,X'FF'-DATAENT   RESET INFCODE
         MVC   FIRSTSCR,FIRSTREC       POINT TO BEGINNING OF WORKSPACE
         L     R2,FIRSTSCR             POINT TO BEGINNING OF WORKSPACE
         AH    R2,SCRLEN               POINT TO END OF SCREEN
         S     R2,RLENGTH              MINUS 1 LINE
         ST    R2,LASTSCR              POINT TO END OF SCREEN
         ST    R2,LASTREC              POINT TO END OF SCREEN
         LH    R3,#LINES               20/28/39 LINES
         L     R2,FIRSTREC             POINT TO FIRST LINE
         USING WORKSPCE,R2             ADDRESS WORKSPACE RECORD
DATA     EQU   *
         MVC   0(NEXTENT,R2),BLANKS
         XC    WORKFLGS,WORKFLGS       CLEAR FLAGS
         OI    WORKFLGS,$INSERTD       INSERTED LINE WITH NO DATA
         DROP  R2
*---------------------------------------------------------------------*
*        THE WORKSPACE RECORD CONTAINS THE FOLLOWING INFO:            *
*        1.    THE LINE NUMBER ON THE SCREEN (NOT IN DATA): 6 BYTES   *
*        2.    2 FLAGBYTES                                            *
*              FLAG 1: (X'8000') IF ON: LINE IS INSERTED BUT CONTAINS *
*                                       NO DATA                       *
*        3.    THE DATA (AT THIS MOMENT 80 BYTES                      *
*----------------------------------------- (C)-2005 SKYBIRD SYSTEMS --*
         LA    R2,NEXTENT(R2)
         BCT   R3,DATA
         L     R15,=V(NUMBER)          RENUMBER WORKSPACE
         BALR  R14,R15                 EXEC THIS ROUTINE
         MVC   SCR5STA,=C'Create'      INPUT MODE
         B     RTN0000                                             @rp3
LINK     EQU   *
         LINK  EP=RPFEDITL,PARAM=((11))
         MVC   MEMBER,COPMEM           RESTORE MEMBER
         MVC   DSNAME,COPYDSN          RESTORE DSNAME
         MVC   VOLUME,COPYVOL          RESTORE VOLUME
CODE00   CLC   RTNCODE,F0000
         BE    INIT
CODE04   CLC   RTNCODE,F0004
         BNE   CODE08
         OI    SW,$TRUNC               INDICATE LOAD TERMINATED
         MVC   SCR5TRUN,INTHIGH        INDICATE WORKSPACE TRUNCATED
         MVC   MSG5,ERR1TXT            LOAD TERMINATED INTO SCREEN
         B     RTN0000                 CONTINUE PROCESSING
CODE08   CLC   RTNCODE,F0008
         BNE   CODE12
         B     RETURN
CODE12   CLC   RTNCODE,F0012           FILE EMPTY ?
         BNE   CODE20
         TM    INFCODE3,$EDTCOPY       COPY COMMAND OF EDIT?
         BO    RTN0000                 YES: IGNORED DATASET EMPTY
         B     CREATE                  Go to create mode           @rp3
CODE20   CLC   RTNCODE,F0020           ENQ FAILED ?
         BNE   CODE24                                              @rp4
         B     RETURN                                              @rp4
CODE24   CLC   RTNCODE,F0024           Recfm=V dataset             @rp4
         BNE   CODEXX                  Unexpected return code      @rp4
         B     RETURN
CODEXX   MVC   MSG5,ERR2TXT
RTN0000  EQU   *
         XC    RTNCODE,RTNCODE         CLEAR RETURN CODE
INIT     XC    REP5,REP5               CLEAR REPLY AREA
         CLC   FIRSTREC,LASTREC        WORKSPACE EMPTY ?
         BNH   TEST1                   NO: PROCEED
         MVC   RTNCODE,F0016           RC= 0016 WORKSPACE EMPTY
         B     RETURN                  LEAVE EDITOR
TEST1    EQU   *                       TEST IF UNPRINTABLES IN WORKSPC
         L     R4,FIRSTREC             FIRST RECORD POINTER
         LA    R6,NEXTENT              LENGTH OF LINE
         L     R7,LASTREC              LAST RECORD POINTER
         LA    R7,79(R7)               POINT TO LAST BYTE
TEST2    EQU   *
         USING WORKSPCE,R4             ADDRESS WORKSPACE RECORD
         TRT   WORKDATA(OFFSETN1),COMTRTST TEST ON UNPRINTABLES
         BZ    TEST2A                  BRANCH IF NOT
         OI    SW,$XLATED              MARK UNPRINTABLES
         MVC   SCR5XLAT,INTHIGH        MARK TEXT TRANSLATED INTO HEADER
TEST2A   TRT   WORKDATA(OFFSETN1),COMTRTXT TEST ON ASIS MODE
         BZ    TEST3                   BRANCH IF NOT
         OI    SW,$ASIS                INDICATE ASIS MODE
TEST3    EQU   *                       TEST IF DATA HAS VALID LINENBRS
         TM    INFCODE,$COBOL          IS IT COBOL ?
         BNO   TEST3A                  NO: TEST LINES IN COLS 73-80
         MVC   NUMFLD,C0000            MOVE ZEROES IN NUMFLD
         MVC   NUMFLD(6),0(R4)         TEST COLS 01-06
         B     TEST3B                  TEST IF NUMERIC
TEST3A   MVC   NUMFLD,OFFSETN1(R4)     MOVE COLS 73-80 TO NUMFLD
         DROP  R4
TEST3B   EQU   *                       TEST IF NUMERIC
         L     R15,=V(NUMTST)          ENTRY POINT NUMTST
         BALR  R14,R15                 EXEC NUMTST ROUTINE
         LTR   R15,R15                 OK ?
         BZ    TEST3C                  YES: DO NOT CHANGE ATTR.
         MVC   NUMBERED(3),=C'NO '     MARK NONUM MODE
TEST3C   BXLE  R4,R6,TEST2             LOOP
         TM    SW,$ASIS                ASIS MODE ?
         BNO   TEST4
         MVC   FOLD(3),=C'NO '         INDICATE ASIS MODE
TEST4    TM    SW,$XLATED              UNPRINTABLES DETECTED ?
         BNO   TEST11                  NO: PROCEED NORMAL EDIT
         MVC   MSG5(L'MSG3TXT),MSG3TXT TRANSLATED TEXT
TEST11   CLC   FOLD(2),=C'NO'
         BNE   TEST13
         MVC   SCR5ASIS,INTHIGH        INDICATE ASIS
TEST13   L     R15,=V(NUMBER)          RENUMBER WORKSPACE
         BALR  R14,R15                 EXEC THIS ROUTINE
         CLC   NUMBERED(3),=C'YES'     LINE NUMBERS ?
         BE    PUT1
         MVC   SCR5NON,INTHIGH         INDICATE NONUM
         XC    SCOPENUM,SCOPENUM       BUILD DEFAULT SCOPE COMMAND
         BAL   R14,SCOPE               EXEC THIS COMMAND
         TITLE 'PROCESS THE SUBCOMMANDS'
PUT1     EQU   *
         TPUT  SCR1TXT,SCR1LEN,FULLSCR
VIEW     EQU   *
         MVC   CMDAREA,BLANKS          CLEAR CMDAREA FIELD
         BAL   R14,CNVOUT              CONVERT WORKAREA INTO SCREEN
         BAL   R14,CNVIN
         LTR   R15,R15
         BZ    VIEW07A
         C     R15,F0004               NO INPUT ?
         BE    VIEW
         C     R15,F0008               CLEAR KEY PRESSED ?
         BE    PUT1                    RESET SCREEN
         B     VIEWERRA                ERROR: CONVERT FAILED
VIEW07A  EQU   *
         CLI   AIDBYTE,X'7D'           ENTER KEY ?
         BE    VIEW07B
         CLI   AIDBYTE,X'6D'           CLEAR KEY ?
         BE    PUT1                    RESET SCREEN
         CLI   AIDBYTE,X'60'           NO AIDBYTE ?
         BE    PUT1                    RESET SCREEN
         BAL   R14,PFK                 SCAN PFK
         LTR   R15,R15                 RC= 0000 - CON=N ?
         BZ    VIEW07D                 YES: EXEC COMMAND
         C     R15,F0004               RC= 0004 - CON=Y ?
         BE    VIEW                    REVIEW SCREEN
         C     R15,F0012               RC= 0012 - INVALID PFK DEF.
         BE    VIEWERRD                PFK INVALID
         B     VIEWERRB                PFK NOT DEFINED
VIEW07B  CLC   FOLD(2),=C'NO'          EDIT WITH LOWERCASE ?
         BNE   VIEW07C                 NO: XLATE BUFFER TO UPPERCASE
         OC    BUFFER(2),BLANKS        XLATE ONLY FIRST 2 POS TO UPPER
         CLC   BUFFER(2),=C'C '        'C' COMMAND
         BE    VIEW07D                 YES: PROCEED
         CLC   BUFFER(3),=C'&&C '      REPEAT 'C' COMMAND ?
         BE    VIEW07D                 YES: PROCEED
         CLC   BUFFER(2),=C'F '        'F' COMMAND
         BE    VIEW07D                 YES: PROCEED
         CLC   BUFFER(3),=C'&&F '      REPEAT 'F' COMMAND ?
         BE    VIEW07D                 YES: PROCEED
         CLC   BUFFER(2),=C'O '        'O' COMMAND
         BE    VIEW07D                 YES: PROCEED
         CLC   BUFFER(3),=C'&&O '      REPEAT 'O' COMMAND ?
         BE    VIEW07D                 YES: PROCEED
VIEW07C  OC    BUFFER,BLANKS           TRANSLATE WHOLE BUFFER
VIEW07D  XC    REP5,REP5               CLEAR REPLY AREA
         CLC   BUFFER,BLANKS           NULL LINE ENTERED ?
         BE    VIEW                    YES: REVIEW CHANGED SCREEN
         CLI   BUFFER,X'00'            NULL LINE ENTERED ?
         BE    VIEW
         CLI   BUFFER,X'50'            REPEAT COMMAND ?
         BNE   VIEW07H                 NO: PROCEED
         CLI   BUFFER+1,X'40'          REPEAT PREVIOUS COMMAND ?
         BNE   VIEW07E
         MVC   REP5,SAVECMD            SET PREVIOUS COMMAND INTO
         B     VIEW                    ) COMMAND AREA
VIEW07E  MVC   BUFFER(47),BUFFER+1     SHIFT OUT X'50'
         MVI   BUFFER+47,X'40'         INSERT BLANK
         MVC   REP5+1(47),BUFFER       REPEAT COMMAND
         MVI   REP5,X'50'              INSERT X'50'
         B     VIEW07H
VIEW07H  EQU   *                       SCAN THE SUBCOMMANDS
         CALL  CMDSCAN,(BUFFER,(11))   SCAN THE SUBCOMMANDS        @rp6
         B     VIEWSCAN(15)            Go to branchlist            @rp6
VIEWSCAN B     VIEWEX                  Exec command                @rp6
         B     VIEWERR3                Command not found           @rp6
         B     VIEWRTRV                Command retrieved           @rp6
         B     VIEWERR5                Nothing to RETRIEVE         @rp6
VIEWEX   DS    0H                                                  @rp6
         LR    R14,R1                  PICKUP ROUTINE ADDRESS
         BR    R14                     EXECUTE SUBCOMMAND
*------- ----- ----------------------- SUBCOMMAND 'RETRIEVE'       @rp6
VIEWRTRV EQU   *                                                   @rp6
         MVC   REP5,0(R1)              Move gotten command         @rp6
         B     VIEW
*------- ----- ----------------------- SUBCOMMAND 'I '
VIEWINP  EQU   *
         BAL   R14,INPUT
         B     VIEW
*------- ----- ----------------------- SUBCOMMAND 'SCF'
VIEWFORW EQU   *
         MVC   BUFFER,BLANKS           BLANK BUFFER
         MVI   BUFFER,C'L'             CREATE 'L'  COMMAND
         CLC   SCROLNUM(4),=C'CSR '    SCROLL ON CURSOR LOCATION ?
         BE    VIEWFOR2                YES: CALCULATE # OF SCROLL LINES
         MVI   BUFFER+2,C'+'           MOVE SIGN
         MVC   BUFFER+3(4),SCROLNUM    MOVE NUMBER OF LINES
         B     VIEWLINE                EXECUTE LINE COMMAND
VIEWFOR2 CALL  CSR                     FIND CURSOR POSITION
         LTR   R15,R15                 RC= 0000 ?
         BZ    VIEWFOR4                YES: LINE FOUND
VIEWFOR3 EQU   *
         MVI   BUFFER+2,C'+'           MOVE SCROLL SIGN
         B     VIEWSCRO                DEFAULT SCR.VALUE (1 SCRN - 1)
VIEWFOR4 EQU   *
         MVC   BUFFER+2(8),NUMFLD      LINE TO WHERE WE SCROLL
         B     VIEWLIN6                EXEC LOCATE COMMAND
*------- ----- ----------------------- SCROLL DEFAULT (SCROLL CSR)
VIEWSCRO EQU   *
         LH    R1,#LINES               MOVE NUMBER OF LINES/SCREEN
         BCTR  R1,0                    MINUS 1
         CVD   R1,PACKFLD              DECIMAL
         UNPK  BUFFER+3(4),PACKFLD     EBCDIC
         OI    BUFFER+6,X'F0'          CLEAR SIGN
         B     VIEWLINE                EXEC LINE COMMAND
*------- ----- ----------------------- SUBCOMMAND 'SUB'
VIEWSUB  EQU   *
         LINK  EP=RPFSUB,PARAM=SUBLIST LINK TO ROUTINE
         B     VIEWSUBX(R15)
VIEWSUBX B     VIEWSUB1                JOB SUBMITTED
         B     VIEWSUB2                SUBMIT FAILED
         B     VIEWSUB3                NO JOBSTATEMENT
VIEWSUB1 MVC   MSG5,MSG2TXT            JOB SUBMITTED
         B     PUT1                    REVIEW SCREEN
VIEWSUB2 MVC   MSG5(L'ERRITXT),ERRITXT MOVE ERROR MESSAGE
         B     VIEW                    REVIEW SCREEN
VIEWSUB3 MVC   MSG5(L'ERRATXT),ERRATXT MOVE ERROR MESSAGE
         B     VIEW                    REVIEW SCREEN
*------- ----- ----------------------- SUBCOMMAND 'SCB'
VIEWBACK EQU   *
         MVC   BUFFER,BLANKS           BLANK BUFFER
         MVI   BUFFER,C'L'             CREATE 'L'  COMMAND
         CLC   SCROLNUM(4),=C'CSR '    CURSOR SCROLL ?
         BE    VIEWBAC2                YES: TRY TO FIND CURSOR
         MVI   BUFFER+2,C'-'           CREATE LINE COMMAND
         MVC   BUFFER+3(4),SCROLNUM    MOVE # OF LINES TO SCROLL
         B     VIEWLINE                EXEC LINE COMMAND
VIEWBAC2 CALL  CSR                     TRY TO FIND CURSOR