         MACRO
&NAME    SORT  &TAB,&LEN1,&LEN2,&ENTRY,&START,&TYPE=C,&ORDER=A
         LCLC  &L
&L       SETC  'L&SYSNDX'
.* THIS MACRO SORTS A CORE TABLE
.* AND USED IN THE RPF PROGRAMS FROM SKYBIRD SYSTEMS
.* TAB = ADDRESS TABLE
.* LEN1 = LENGTH OF 1 ENTRY
.* LEN2 = LENGTH OF SORT FIELD
.* ENTRY = NUMBER OF ENTRIES
.* START = OFFSET SORT FIELD IN ENTRY
.* TYPE = TYPE OF SORT (C=CHARACTER, P=PACKED)
.* ORDER = A OR D (A=ASCENDING, D=DESCENDING ORDER)
         AIF   ('&TAB' EQ '').FOUTADR
         AIF   ('&LEN1' EQ '').FOUTL1
         AIF   ('&LEN2' EQ '').FOUTL2
         AIF   ('&ENTRY' EQ '').FOUTENT
         AIF   ('&ORDER' EQ 'A').TEST1
         AIF   ('&ORDER' EQ 'D').TEST1
.FOUTOR  MNOTE 14,'***** ORDER SHOULD BE A (ASCENDING) OR D (DESCENDING*
               )'
         AGO   .FOUT
.TEST1   ANOP
         AIF   ('&TYPE' EQ 'C').CHAR
         AIF   ('&TYPE' EQ 'P').CHAR
         MNOTE 14,'***** TYPE NOT ''C'' OR ''P'''
.FOUT    MNOTE *,'***** NO MACRO EXPANSION.'
         MEXIT
.FOUTADR MNOTE 14,'***** WRONG TABLE ADDRESS.'
         AGO   .FOUT
.FOUTL1  MNOTE 14,'***** WRONG LENGTH 1.'
         AGO   .FOUT
.FOUTL2  MNOTE 14,'PPPPP WRONG LENGTH 2.'
         AGO   .FOUT
.FOUTENT MNOTE 14,'***** WRONG NUMBER OF ENTRIES.'
         AGO   .FOUT
.*
.* OPERANDS ARE GOOD.
.*
.*
.CHAR    ANOP
         CNOP  0,4            FULLWORD BOUNDARY.
&NAME    STM   3,4,&L.A
         B     &L.C
&L.A     DS    F
         DS    F
&L.F     DS    F
&L.B     DS    F
         AIF   ('&TAB'(1,1) EQ '(').TABREG1
&L.C     LA    3,&TAB
         AGO   .STORE3
.TABREG1 ANOP
&L.C     LR    3,&TAB(1)
.STORE3  ANOP
         ST    3,&L.B
         AIF   ('&ENTRY'(1,1) EQ '(').ENTRREG
         B     &L.E
&L.D     DC    A((&ENTRY-1)*&LEN1)
         AGO   .ADD3
.ENTRREG ANOP
         BCTR  &ENTRY(1),0
         MH    &ENTRY(1),=H'&LEN1'
         ST    &ENTRY(1),&L.D
         B     &L.E
&L.D     DS    F
.ADD3    ANOP
&L.E     L     4,&L.D
         AR    3,4
         ST    3,&L.F
         AIF   ('&TAB'(1,1) EQ '(').TABREG2
         LA    3,&TAB
         AGO   .LOAD4
.TABREG2 ANOP
         LR    3,&TAB(1)
.LOAD4   ANOP
         LA    4,&LEN1.(3)
         AIF   ('&TYPE' EQ 'P').PACKED
&L.H     CLC   &START.(&LEN2,3),&START.(4)
         AGO   .VERDER
.PACKED  ANOP
&L.H     CP    &START.(&LEN2,3),&START.(&LEN2,4)
.VERDER  ANOP
         AIF   ('&ORDER' EQ 'D').BR1
         BH    &L.G
         AGO   .BR2
.BR1     ANOP
         BL    &L.G
.BR2     ANOP
         LA    3,&LEN1.(3)
         LA    4,&LEN1.(4)
         C     3,&L.F
         BE    &L.I
         B     &L.H
&L.G     XC    0(&LEN1,3),0(4)
         XC    0(&LEN1,4),0(3)
         XC    0(&LEN1,3),0(4)
         S     3,=F'&LEN1'
         S     4,=F'&LEN1'
         C     3,&L.B
         BNL   &L.H
         A     3,=F'&LEN1'
         A     4,=F'&LEN1'
         B     &L.H
&L.I     LM    3,4,&L.A
         MEND
         PUNCH ' SETCODE AC(1)'
RPFMVCPY TITLE 'RPF, Move and Copy routine'
*---------------------------------------------------------------------*
*                                                                     *
*        MODULE         RPFMVCPY.                                     *
*                                                                     *
*        FUNCTION:      Present an allocation menu of two datasets    *
*                       (a From and a To dataset) and a menu to       *
*                       specify the operation M(ove) or C(copy).      *
*                       You also can specify to replace members or not*
*                       After succesful allocation the directory of   *
*                       the "From" dataset will be shown.             *
*                       By spefifying an "S" the member is selected   *
*                       to copy. After a screen is processed,         *
*                       IEBCOPY will be invoked to copy the members   *
*                       from the FROM dataset to the TO dataset.      *
*                       If Move is specified the members will be      *
*                       deleted from the FROM dataset                 *
*                                                                     *
*                       If IEBCOPY suffers a nonzero return code for  *
*                       some reason the output will be browsed.       *
*                                                                     *
*                       If 'dsn(*)' is specified in the allocation    *
*                       screen, all members will be copied and no     *
*                       member selection list will be presented       *
*                                                                     *
*                       RPFMVCPY Primary commands:                    *
*                       -  BOTTOM:   Scroll to last page  (Alias 'B') *
*                       -  END:      terminate MOVE/COPY              *
*                       -  L member  Locate at member 'member'.       *
*                       -  PFK:      Alter Program Function Keys.     *
*                       -  RETURN:   Terminate Move/Copy and return   *
*                                    to Main Menu                     *
*                       -  SCB:      Scroll 1 page backward.          *
*                       -  SCF:      Scroll 1 page foreward.          *
*                       -  TOP:      Scroll to first page (alias 'T') *
*                       -  =n or =n.n Return to RPFMAIN and exec.     *
*                          option 'n' or option 'n.n'                 *
*                                                                     *
*                       If the primary commands are preceded by an    *
*                       amphersand ('&&') the command will be repeated*
*                       in the command line after execution.          *
*                                                                     *
*        SUBROUTINES:   RPFPFK,   The PFK definition routine          *
*                       IEBCOPY,  IBM's copy routine                  *
*                                                                     *
*        Notes: The SYS1.AMODGEN macro library should be included.    *
*               Reg.10 points always to an entry in the workspace     *
*                                                                     *
*        LKED attribute: AC(1) needed for IEBCOPY                     *
*                                                                     *
*        Modifications:                                               *
*        May 4,2004 If member in TO ds exists give msg 'Replaced'  @rp1
*                                                                     *
*-------------------------------------- (C)-2004 Skybird Systems -----*
         SPACE 2
RPFMVCPY CSECT                         *
         SAVE  (14,12),,*              Save registers
         USING RPFMVCPY,R15            Get local addressability
         LA    R14,SAVE                New save area
         ST    R13,SAVE+4              Backward pointer
         ST    R14,8(R13)              Foreward pointer
         LR    R13,R14                 Exchange savearea
         DROP  R15                     Kill local addressability
         LA    R12,2048(R13)           2nd base register
         LA    R12,2048(R12)
         LA    R9,2048(R12)            3rd base register
         LA    R9,2048(R9)
         LA    R8,2048(R9)             4th base register
         LA    R8,2048(R8)
         USING SAVE,R13,R12,R9,R8      R13,R12,R9 and R8 are base
         B     RPFINITT                Branch around save area
*
SAVE     DC    18F'-1'                 SAVE AREA
         DC    CL8'&SYSDATE',C' ',CL8'&SYSTIME'
RPFINITT DS    0H
         L     R11,0(R1)               Load RPFCOMM area
         USING COMMAREA,R11            Get addressability RPFCOMM
         USING SPFDATA,R3              GET ADDRESSABILITY UDATA
         MVC   SCR1UID+38(7),USERID    User id in allocation screen
         MVC   SCR1DSNF,DSNAME
         MVC   SCR1VOLF,VOLUME
         MVC   SCR1DSNT,BLANKS
         MVC   SCR1VOLT,BLANKS
         MVC   SCR1REPL,COMMREPL       Default Replace from commarea
         MVI   MSG1,C'-'               Clear
         MVC   MSG1+1(L'MSG1-1),MSG1        message area
         MVI   MSG5,C'-'               CLEAR
         MVC   MSG5+1(L'MSG5-1),MSG5        MESSAGE AREA
         MVI   SW,X'00'                CLEAR SWITH
         CLC   COMMSIZE,=H'24'         24 lines gotten ?
         BE    START19                 YES: NORMAL 24X80 DISPLAY
         CLC   COMMSIZE,=H'32'         32 LINES GOTTEN ?
         BE    START17                 YES: 3278/79 MODEL 3
         CLC   COMMSIZE,=H'43'         43 lines gotten ?
         BNE   START19                 NOT ONE OF ABOVE MODEL 2 DISPLAY
START15  MVC   ERASE(2),=X'277E'       Generate write alternate
         MVC   SCR1TXT(2),=X'277E'     Generate write alternate
         MVC   SCRLEN,F704             Move length of output screen
         MVC   #LINES,=F'40'
         LA    R4,SCR543               Length of screen to write
         ST    R4,TPUTLEN              Store the result
         LA    R4,LINES40              40 * Nextent (88)
         ST    R4,NEXTSCR              Store the result
         B     START21
START17  MVC   ERASE(2),=X'277E'       Generate write alternate
         MVC   SCR1TXT(2),=X'277E'     Generate write alternate
         MVC   SCRLEN,F517             Move length of output screen
         MVC   #LINES,=F'29'
         LA    R4,SCR532               Lenght of screen
         ST    R4,TPUTLEN              Store the result
         LA    R4,LINES29              29 * NEXTENT (88)
         ST    R4,NEXTSCR              Store the result
         B     START21                 and branch
START19  MVC   ERASE(2),=X'27F5'       Generate write
         MVC   SCR1TXT(2),=X'27F5'     Generate write
         MVC   SCRLEN,F381             Move length of output screen
         MVC   #LINES,=F'21'
         LA    R4,SCR524               Length of screen to write
         ST    R4,TPUTLEN              Store the result
         LA    R4,LINES21              21 * NEXTENT (88)
         ST    R4,NEXTSCR              Store the result
START21  DS    0H
         STM   R8,R13,HEREADDR         Save for ESTAE
*---------------------------------------------------------------------*
*        Issue allocation screen, ask for FROM and TO dataset         *
*---------------------------------------------------------------------*
RESTART  DS    0H
         NI    SW,255-$ALLMEM          Copy/Move all members off
         SYALLOC FREE=RPFUT1,MF=E      Unallocate
         SYALLOC FREE=RPFUT2,MF=E                datasets (for sure)
         SYALLOC FREE=RPFIN,MF=E
         SYALLOC FREE=RPFPRINT,MF=E
         TPUT  SCR1TXT,SCR1LEN,FULLSCR
         MVC   BUFDSNF,BLANKS          Blank
         MVC   BUFVOLF,BLANKS               the
         MVC   BUFDSNT,BLANKS                  fields
         MVC   BUFVOLT,BLANKS
         MVC   BUFCMD,BLANKS
         L     R3,COMMSCR              Point to output buffer
         TGET  (3),300,ASIS            Read contents of scr1.
         LR    R4,R1                   Save length
*        Do a  TGET ASIS to obtain the AID byte
*        After the TGET ASIS remove the SBA'S from the output
         CLI   0(R3),X'F3'             PFK3 (END) pressed?
         BE    RETURN2                 YES: EXIT
         CLI   0(R3),X'C3'             PFK15 (END) pressed?
         BE    RETURN2                 YES: EXIT
         XR    R2,R2                   Init output length
         LR    R4,R1                   Save input length
         SH    R4,=H'3'                Skip AID and cursor address
         C     R4,F0000                Register zero?
         BNH   REMOVE9                 Not high: end of routine
         LA    R3,3(R3)
         L     R5,COMMSCR              Output screen
         LA    R5,2048(R5)             Point to second part
*        INPUT SCREEN IS POINTED TO BY R3
*        OUTPUT SCREEN IS POINTED TO BY R5
*        THE NEXT SECTION WILL REMOVE ALL THE SBA'S
REMOVE1  DS    0H
         CLI   0(R3),X'11'             SBA ?
         BE    REMOVE3                 Yes: skip next 3 bytes
REMOVE2  DS    0H
         MVC   0(1,R5),0(R3)           Move input byte
         LA    R3,1(R3)                Next byte input
         LA    R2,1(R2)                Count output bytes
         LA    R5,1(R5)                NEXT BYTE OUTPUT
         BCT   R4,REMOVE1              Test next byte
         B     REMOVE9                 End of REMOVE routine
REMOVE3  DS    0H
         LA    R3,3(R3)                Skip 3 bytes input
         BCTR  R4,0                    Minus 1 BCT
         BCTR  R4,0                    Minus 1 BCT
         C     R4,F0000                All done ?
         BNH   REMOVE9                 Yes: terminate conversion
         BCT   R4,REMOVE1              Test next byte
REMOVE9  DS    0H
         LR    R1,R2                   Output length in register 1
         L     R5,COMMSCR              Output buffer
         LA    R5,2048(R5)             Point to second part
         OC    0(256,R5),BLANKS        XLATE to uppercase
         OC    256(256,R5),BLANKS      XLATE to uppercase
DYNALC01 DS    0H
         MVC   SCR5FDSN,BLANKS         Clear from data set name
         MVC   SCR5TDSN,BLANKS         Clear To data set name
         LTR   R1,R1                   No input received (erase EOF)?
         BZ    RESTART                 YES: refresh screen
         LR    R6,R1                   Length of buffer
         LA    R4,BUFCMD               Point to option field
DYNALC03 DS    0H
         CLC   0(7,R5),=C'DSNAME='     Search for DSN of from dataset
         BE    DYNALC05                Found: process To DSN
         MVC   0(1,R4),0(R5)           1 char. command
         LA    R5,1(R5)                Next byte
         LA    R4,1(R4)                Next byte in command
         BCT   R6,DYNALC03             Examine next bytes
         B     RESTART                 Clear key pressed.
DYNALC05 DS    0H
         LA    R5,7(R5)                Point after 'Dsname='
         LA    R4,BUFDSNF              Point to from data set name
DYNALC07 DS    0H
         CLC   0(7,R5),=C'VOLUME='     Search for volume FROM
         BE    DYNALC09                Found: process volume
         MVC   0(1,R4),0(R5)           1 char From dsn
         LA    R5,1(R5)                Next character input
         LA    R4,1(R4)                Next character output
         BCT   R6,DYNALC07             Examine next bytes
         B     RESTART                 Clear key pressed
DYNALC09 DS    0H
         LA    R5,7(R5)                Point after 'Volume='
         LA    R4,BUFVOLF              Point to volume
DYNALC11 DS    0H
         CLC   0(7,R5),=C'DSNAME='     Search for DSN of to dataset
         BE    DYNALC13                Found: process end of screen
         MVC   0(1,R4),0(R5)           1 char. FROM volume
         LA    R5,1(R5)                Next character input
         LA    R4,1(R4)                Next character output
         BCT   R6,DYNALC11             Examine next bytes
         B     RESTART                 Clear key pressed
DYNALC13 DS    0H
         LA    R5,7(R5)                Point after 'Dsname='
         LA    R4,BUFDSNT              Point to TO data set name
DYNALC15 DS    0H
         CLC   0(7,R5),=C'VOLUME='     Search for volume TO
         BE    DYNALC17                Found: process volume
         MVC   0(1,R4),0(R5)           1 char TO dsn
         LA    R5,1(R5)                Next character input
         LA    R4,1(R4)                Next character output
         BCT   R6,DYNALC15             Examine next bytes
         B     RESTART                 Clear key pressed
DYNALC17 DS    0H
         LA    R5,7(R5)                Point after 'Volume='
         LA    R4,BUFVOLT              Point to volume
DYNALC19 DS    0H
         CLC   0(10,R5),=C'REPLACE LI' Search for Replace Like members
         BE    DYNALC20                Found: process replace
         MVC   0(1,R4),0(R5)           1 char volume to dataset name
         LA    R5,1(R5)                Next character input
         LA    R4,1(R4)                Next character output
         BCT   R6,DYNALC19             Examine next bytes
         B     RESTART                 Clear key pressed
DYNALC20 DS    0H
         LA    R5,21(R5)       Point after 'replace like members:'
         LA    R4,BUFREPL              Point to volume
DYNALC21 DS    0H
         CLC   0(9,R5),=C'YES OR NO'   Search for End of screen
         BE    DYNALC22                Found: All done
         MVC   0(1,R4),0(R5)           1 char replace
         LA    R5,1(R5)                Next character input
         LA    R4,1(R4)                Next character output
         BCT   R6,DYNALC21             Examine next bytes
         B     RESTART                 Clear key pressed
DYNALC22 DS    0H
         MVC   SCR1DSNF,BUFDSNF        Move the
         MVC   SCR1DSNT,BUFDSNT                fields
         MVC   SCR1VOLF,BUFVOLF                      in the
         MVC   SCR1VOLT,BUFVOLT                            scr.
         MVC   SCR1REPL,BUFREPL                               een
         MVC   SCR1CMD(3),BUFCMD       Move command in screen
         CLI   BUFCMD,C'M'             Move command?
         BE    DYNALC23                Yes: branch (OK)
         CLI   BUFCMD,C'C'             Move command?
         BE    DYNALC23                Yes: branch (OK)
         MVC   MSG1,ERRFTXT            Move error message (invalid opt)
         B     RESTART                 Write allocation screen again
DYNALC23 DS    0H
         CLC   BUFDSNF,BLANKS          Dataset specified ?
         BNE   DYNALC25                Yes: branch
         MVC   ERR2TXT+10(4),=C'From'  From dataset not specified
         MVC   MSG1,ERR2TXT            Move error message
         B     RESTART                 Write allocation screen again
DYNALC25 DS    0H
         CLC   BUFDSNT,BLANKS          Dataset specified ?
         BNE   DYNALC26                Yes: branch
         MVC   ERR2TXT+10(4),=C'To  '  To dataset not specified
         MVC   MSG1,ERR2TXT            Move error message
         B     RESTART                 Write allocation screen again
DYNALC26 DS    0H
         CLC   =C'NO',BUFREPL          No specified or defaulted?
         BE    DYNALC27                Yes: ok
         CLC   =C'YES',BUFREPL         Yes specified?
         BE    DYNALC27                Yes: ok
         MVC   MSG1,ERRHTXT            Replace not YES or NO
         B     RESTART                 Write allocation screen again
DYNALC27 DS    0H
         LA    R1,BUFDSNF              Point to from dataset and vol.
         BAL   R14,ALLOC               Alloc and check dataset
         B     DYNALC29(15)            Process branchlist
DYNALC29 DS    0H
         B     DYNALC37                OK!
         B     DYNALC31                Data set not allocated
         B     DYNALC33                Data set not on volume
         B     DYNALC35                Data set not partitioned
DYNALC31 DS    0H
         MVC   ERR6TXT(4),=C'From'
         MVC   MSG1,ERR6TXT            Move error message
         B     RESTART                 Write allocation screen again
DYNALC33 DS    0H
         MVC   ERRBTXT(4),=C'From'
         MVC   MSG1,ERRBTXT            Move error message
         B     RESTART                 Write allocation screen again
DYNALC35 DS    0H
         MVC   ERR5TXT+2(4),=C'From'
         MVC   MSG1,ERR5TXT            Move error message
         B     RESTART                 Write allocation screen again
DYNALC37 DS    0H
         LA    R1,BUFDSNT              Point to TO dataset and vol.
         BAL   R14,ALLOC               Alloc and check dataset
         B     DYNALC39(15)            Process branchlist
DYNALC39 DS    0H
         B     DYNALC47                OK!
         B     DYNALC41                Data set not allocated
         B     DYNALC43                Data set not on volume
         B     DYNALC45                Data set not partitioned
DYNALC41 DS    0H
         MVC   ERR6TXT(4),=C'To  '
         MVC   MSG1,ERR6TXT            Move error message
         B     RESTART                 Write allocation screen again
DYNALC43 DS    0H
         MVC   ERRBTXT(4),=C'To  '
         MVC   MSG1,ERRBTXT            Move error message
         B     RESTART                 Write allocation screen again
DYNALC45 DS    0H
         MVC   ERR5TXT+2(4),=C'To  '
         MVC   MSG1,ERR5TXT            Move error message
         B     RESTART                 Write allocation screen again
DYNALC47 DS    0H
         CLC   BUFDSNF(50),BUFDSNT     Datasets equal?
         BNE   DYNALC48                No: Ok
         MVC   MSG1,ERRJTXT            Dataset cannot be equal
         B     RESTART                 Write allocation screen again
DYNALC48 DS    0H
*---------------------------------------------------------------------*
*
*    Check if DCB From dataset matches with DCB To dataset
*    RECFM=U in both datasets and BLKSIZE From <= BLKSIZE To = Match
*    RECFM=F(B) in both datasets and LRECL both equal = Match
*    RECFM=V(B) in both datasets and LRECL both equal = Match
*    RECFM=FBA in From and RECFM=FB in To = no match
*    RECFM=VBA in From and RECFM=VB in To = no match
*    RECFM/LRECL/BLKSIZE in both dataset all equal = always match
*
*-------------------------------------- (C)-2004-Skybird Systems -----*
         CLC   DSNFRECF,DSNTRECF       Does record format match?
         BNE   DYNALC53                No: give error msg and branch
         TM    DSNFRECF,DCBRECU        Record fm = U
         BNO   DYNALC49                No: test match blksize+lrecl
         CLC   DSNFBLK,DSNTBLK         Test block sizes
         BH    DYNALC53                Error if input > output
         B     DYNALC51                No: continue
DYNALC49 DS    0H
         CLC   DSNFLREC(2),DSNTLREC    Does lrecl match
         BNE   DYNALC53                Error if not
DYNALC51 DS    0H
         SYALLOC DDN=RPFIN,DSN=SYSINDSN,PRI=5,SEC=6,SPTYP=CYL,         X
               DISP1=NEW,UNITA=COMMSTOR,                               X
               MF=E
         SYALLOC DDN=RPFPRINT,PRI=7,SEC=6,SPTYP=CYL,DSN=PRTDSN,        X
               UNITA=COMMSTOR,DISP1=MOD,MF=E,DISP2=DELETE
         MVC   SCR5FDSN,BUFDSNF        Move to
         MVC   SCR5TDSN,BUFDSNT               PDS screen
         MVC   INF2TXT+16(6),=C'copied' default copied
         MVC   MSGC+10(4),=C'Copy'     Default Copy
         CLI   BUFCMD,C'M'             Move command
         BNE   PDS000                  No: finished
         MVC   INF2TXT+16(6),=C'moved ' Else moved
         MVC   MSGC+10(4),=C'Move'     Else move
         B     PDS000                  Display screen
DYNALC53 DS    0H
         MVC   MSG1,ERR7TXT            Move error message
         B     RESTART                 Write allocation screen again
*
PDS000   DS    0H
         ESTAE RECOVER,PARAM=(11)      Establish ESTAE routine
         ZAP   MEMCNT,=P'0'            Init member counter
         MVC   FIRSTSCR,GETMSTRT       Save startaddr in FIRSTSCR
         L     R3,GETMSTRT             Set pointer to FIRSTREC equal
         ST    R3,FIRSTREC             )to start of workspace
         L     R10,GETMSTRT            And load into R10
         LR    R1,R10                  Copy
         S     R1,RLENGTH              MINUS 88
         ST    R1,LASTREC              Initial empty workspace
         USING MEMBAREA,R10            GET ADDRESSABLILITY
         MVC   RPFUT1(DCBLEN),MODELDCB Move modeldcb
         MVC   RPFUT2(DCBLEN),MODELDCB Move modeldcb
         MVI   RPFUT1+DCBRECFM-IHADCB,X'80' Recfm=F
         MVC   RPFUT1+DCBBLKSI-IHADCB(2),=XL2'0100' BLKSIZE=256
         MVI   RPFUT2+DCBRECFM-IHADCB,X'80' Recfm=F
         MVC   RPFUT2+DCBBLKSI-IHADCB(2),=XL2'0100' BLKSIZE=256
         MVC   RPFUT2+DCBDDNAM-IHADCB(8),=CL8'RPFUT2'
         OPEN  RPFUT1                  Open pds for input
PDS001   DS    0H                      Set PDS002 Routine in amode24
*        LA    R1,PDS002               ROUTINE ADDRESS
*        BSM   R0,R1                   GOTO 24 BIT MODE
PDS002   DS    0H
         READ  DECB,SF,RPFUT1,DIRAREA,'S'
         CHECK DECB                    Wait for completion
*        L     R1,=A(PDS003+X'80000000') PICKUP ROUTINE ADDRESS
*        BSM   R0,R1                   GOTO 31 BIT MODE ADDRESSING
PDS003   DS    0H
         LA    R3,DIRAREA              Load directory block
         LR    R5,R3                   Same address in R5
         AH    R5,0(R3)                Add # of usable bytes
         BCTR  R5,0                    Minus 1 for BXLE
         LA    R3,2(R3)                Point to first member
PDS004   DS    0H
         CLI   0(R3),X'FF'             EOF ?
         BE    PDS017                  Close data set
PDS005   DS    0H
         C     R10,GETMEND             End of workspace reached ?
         BNH   PDS007                  No: continue
         UNPK  ERR8TXT+09(5),MEMCNT    Convert to zoned in message
         OI    ERR8TXT+13,X'F0'        Clear sign
         MVC   MSG5,ERR8TXT            Workspace truncated
         B     PDS017                  Force EOF
PDS007   DS    0H
         MVC   PREFIX(NEXTENT),BLANKS    BLANK AREA
         XC    PREFIX,PREFIX           Blank the prefix
         MVC   MEMBR,0(R3)             Store member into area
         MVC   INPTTR(3),8(R3)         Move TTR to workspace
         MVI   INPHL,NONHLM            Move highlite CH (NO HL MDT)
         AP    MEMCNT,=P'1'            Add member
         MVI   ALIAS,C' '              BLANK Alias field
         TM    11(R3),X'80'            Alias entry ?
         BNO   PDS009                  No: branch
         MVI   ALIAS,C'A'              Mark alias
PDS009   DS    0H
         MVC   SAVEC,11(R3)            Save 'C' byte
         NI    11(R3),B'00011111'      Zere first 3 bitS of C byte
         TM    RPFUT1+DCBRECFM-IHADCB,DCBRECF+DCBRECV
         BNZ   PDS013                  NO: branch
*
*        IN THIS SECTION WILL BE LOOKED IF THE PDS-MEMBER CONTAINS
*        LINK EDIT USERDATA.
*
         SYCONVHX IN=SAVEC,OUT=INPC,L=1 SET 'C' BYTE IN WORKSPACE
         XR    R4,R4                   CLEAR REG 4
         IC    R4,11(R3)               INSERT 'C' BYTE
         SLL   R4,1                    * 2 BECAUSE HALFWORD COUNTER
         LTR   R4,R4                   NOT USERDATA PRESENT ?
         BZ    PDS015                  Yes: branch
         LA    R6,INPUDATA             POINT TO USERDATA FIELD IN WS
         CLM   R4,1,=X'10'             More than 16 ?
         BNH   *+8                     NO BRANCH
         LA    R4,16                   SET TO 16
         LA    R7,12(R3)               POINT TO USERDATA OF MEMBER
PDS011   EQU   *
         SYCONVHX IN=(7),OUT=(6),L=1   Convert to EBCDIC
         LA    R7,1(R7)                Point to next byte input
         LA    R6,2(R6)                Point to next bytes output
         BCT   R4,PDS011               Loop untal all done
         B     PDS015                  Branch
PDS013   DS    0H
*---------------------------------------------------------------------*
*                                                                    -*
*        IN THE NEXT SECTION WILL BE LOOKED IF THE MEMBER IS SAVED
*        BY ISPF (SYSTEM PRODUCTIVITY FACILITY) OR WITH THE NEW FORMAT
*        USERDATA OF RPF, IF SO IT WILL BE DISPLAYED.
*
*-------------------------------------- (C)-2004 Skybird Systems -----*
ISPFTEST DS    0H
         CLI   11(R3),X'0F'            Is length 15 halfwords ?
         BL    PDS015                  Low: no ISPF/RPF userdata
         CLI   SPFTIME,X'23'           Test hrs field (UNSIGNED PACKED)
         BH    PDS015                  High: no time field
         CLI   SPFTIME+1,X'59'         Test minutes field (UNSIGN PKD)
         BH    PDS015                  High: no time field
         TM    SPFDATEI+3,X'0C'        Does data contain a sign ?
         BNO   PDS015                  No: no ISPF/RPF userdata
         TM    SPFDATEU+3,X'0C'        DOES MOD DATE CONTAIN A SIGN ?
         BNO   PDS015                  No: no ISPF/RPF userdata
         LR    R1,R3                   A(MEMBER+TTR+UDATA) IN REG 1
         BAL   R14,SPFRPFU             Routine address
PDS015   DS    0H
         ST    R10,LASTREC             Save last record pointer
         LA    R10,NEXTENT(R10)        NEXT ENTRY IN GETM AREA
         NI    11(R3),B'00011111'      Clear 1st three bits of 'C'
         XR    R4,R4                   OF 'TTRC' IN DIR
         IC    R4,11(R3)               And insert it into R3
         AR    R4,R4                   Double because halfwords
         AH    R4,=H'12'               + MIN LENGTH MEMBERENTRY
         BXLE  R3,R4,PDS004            Next member if any
         B     PDS001                  Read next directory block
PDS017   DS    0H                      End of file RPFUT1
         CLOSE RPFUT1                  Close RPFUT1
         ZAP   SORTCNT,MEMCNT          # records to sort for SORT CHA
         CP    MEMCNT,=P'0'            Does FROM dataset contain mbrs?
         BNE   PDS019                  Yes: OK
         MVC   MSG1,ERRLTXT            'No members in FROM ds'
         B     RESTART
PDS019   DS    0H                      End of file RPFUT1
         TM    SW,$ALLMEM              Copy/Move All members?
         BNO   PDS020                  No: continue normally
         BAL   R14,ALLMEM              Move/Copy all members
         B     RESTART                 Allocation menu again
PDS020   DS    0H                      Process the output
         TPUT  ERASE,L'ERASE,FULLSCR
         BAL   R14,RPFTPUT             WRITE THE SCREEN
         TITLE 'PROCESS PRIMARY COMMANDS'
PDS021   DS    0H                      Process the output
         LA    R2,AIDBYTE              AIDbyte address