         MACRO
&NAME    SORT  &TAB,&LEN1,&LEN2,&ENTRY,&START,&TYPE=C,&ORDER=A
         LCLC  &L
&L       SETC  'L&SYSNDX'
.* THIS MACRO SORTS A CORE TABLE
.* AND USED IN THE RPF PROGRAMS FROM SKYBIRD SYSTEMS
.* TAB = ADDRESS TABLE
.* LEN1 = LENGTH OF 1 ENTRY
.* LEN2 = LENGTH OF SORT FIELD
.* ENTRY = NUMBER OF ENTRIES
.* START = OFFSET SORT FIELD IN ENTRY
.* TYPE = TYPE OF SORT (C=CHARACTER, P=PACKED)
.* ORDER = A OR D (A=ASCENDING, D=DESCENDING ORDER)
         AIF   ('&TAB' EQ '').FOUTADR
         AIF   ('&LEN1' EQ '').FOUTL1
         AIF   ('&LEN2' EQ '').FOUTL2
         AIF   ('&ENTRY' EQ '').FOUTENT
         AIF   ('&ORDER' EQ 'A').TEST1
         AIF   ('&ORDER' EQ 'D').TEST1
.FOUTOR  MNOTE 14,'***** ORDER SHOULD BE A (ASCENDING) OR D (DESCENDING*
               )'
         AGO   .FOUT
.TEST1   ANOP
         AIF   ('&TYPE' EQ 'C').CHAR
         AIF   ('&TYPE' EQ 'P').CHAR
         MNOTE 14,'***** TYPE NOT ''C'' OR ''P'''
.FOUT    MNOTE *,'***** NO MACRO EXPANSION.'
         MEXIT
.FOUTADR MNOTE 14,'***** WRONG TABLE ADDRESS.'
         AGO   .FOUT
.FOUTL1  MNOTE 14,'***** WRONG LENGTH 1.'
         AGO   .FOUT
.FOUTL2  MNOTE 14,'PPPPP WRONG LENGTH 2.'
         AGO   .FOUT
.FOUTENT MNOTE 14,'***** WRONG NUMBER OF ENTRIES.'
         AGO   .FOUT
.*
.* OPERANDS ARE GOOD.
.*
.*
.CHAR    ANOP
         CNOP  0,4            FULLWORD BOUNDARY.
&NAME    STM   3,4,&L.A
         B     &L.C
&L.A     DS    F
         DS    F
&L.F     DS    F
&L.B     DS    F
         AIF   ('&TAB'(1,1) EQ '(').TABREG1
&L.C     LA    3,&TAB
         AGO   .STORE3
.TABREG1 ANOP
&L.C     LR    3,&TAB(1)
.STORE3  ANOP
         ST    3,&L.B
         AIF   ('&ENTRY'(1,1) EQ '(').ENTRREG
         B     &L.E
&L.D     DC    A((&ENTRY-1)*&LEN1)
         AGO   .ADD3
.ENTRREG ANOP
         BCTR  &ENTRY(1),0
         MH    &ENTRY(1),=H'&LEN1'
         ST    &ENTRY(1),&L.D
         B     &L.E
&L.D     DS    F
.ADD3    ANOP
&L.E     L     4,&L.D
         AR    3,4
         ST    3,&L.F
         AIF   ('&TAB'(1,1) EQ '(').TABREG2
         LA    3,&TAB
         AGO   .LOAD4
.TABREG2 ANOP
         LR    3,&TAB(1)
.LOAD4   ANOP
         LA    4,&LEN1.(3)
         AIF   ('&TYPE' EQ 'P').PACKED
&L.H     CLC   &START.(&LEN2,3),&START.(4)
         AGO   .VERDER
.PACKED  ANOP
&L.H     CP    &START.(&LEN2,3),&START.(&LEN2,4)
.VERDER  ANOP
         AIF   ('&ORDER' EQ 'D').BR1
         BH    &L.G
         AGO   .BR2
.BR1     ANOP
         BL    &L.G
.BR2     ANOP
         LA    3,&LEN1.(3)
         LA    4,&LEN1.(4)
         C     3,&L.F
         BE    &L.I
         B     &L.H
&L.G     XC    0(&LEN1,3),0(4)
         XC    0(&LEN1,4),0(3)
         XC    0(&LEN1,3),0(4)
         S     3,=F'&LEN1'
         S     4,=F'&LEN1'
         C     3,&L.B
         BNL   &L.H
         A     3,=F'&LEN1'
         A     4,=F'&LEN1'
         B     &L.H
&L.I     LM    3,4,&L.A
         MEND
RPFPDS   TITLE 'PDS MAINTENANCE ROUTINE'
*---------------------------------------------------------------------*
*                                                                     *
*        MODULE         RPFPDS.                                       *
*                                                                     *
*        FUNCTION:      PROCESS THE DIRECTORY OF A PDS                *
*                       THIS MODULE DISPLAYS A DIRECTORY LIST ON THE  *
*                       SCREEN TO LOOK IN THE PDS.                    *
*                       BEFORE EACH MEMBER YOU CAN SPECIFY THE        *
*                       FOLLOWING COMMANDS:                           *
*                       A: ASSIGN AN ALIAS, TYPE IN 'NEWNAME' TOO.    *
*                     B/V: BROWSE THE MEMBER, RPFBRO  WILL BE INVOKED.*
*                       D: DELETE THE MEMBER, RPFPDS WILL ASK THIS.   *
*                       E: EDIT THE MEMBER, RPFEDIT WILL BE INVOKED.  *
*                       P: PRINT THE MEMBER IN THE DEFAULT CLASS      *
*                       R: RENAME THE MEMBER, TYPE IN 'NEWNAME' TOO.  *
*                       X: QUEUE THE MEMBER FOR TRANSMISSION TO       *
*                          ANOTHER NJE NODE.                          *
*                                                                     *
*                       RPFPDS PRIMARY COMMANDS:                      *
*                       -  BOTTOM:   SCROLL TO LAST  PAGE (ALIAS 'B') *
*                       -  END:      TERMINATE PDS.                   *
*                       -  L MEMBER  LOCATE AT MEMBER 'MEMBER'.       *
*                       -  PFK:      ALTER PROGRAM FUNCTION KEYS.     *
*                       -  RESET:    RECREATE THE MEMBER LIST         *
*                       -  RETURN:   TERMINATE PDS AND RETURN TO MAIN *
*                       -  SCB:      SCROLL 1 PAGE BACKWARD.          *
*                       -  SCF:      SCROLL 1 PAGE FOREWARD.          *
*                       -  S member: EDIT/BROWSE Member               *
*                       -  SORT:     SORT WORKSPACE ON MEMBERNAME     *
*                       -  SORT TTR: SORT WORKSPACE ON TTR ORDER      *
*                       -  SORT CHA: SORT WORKSPACE ON DATE CHANGED   *
*                       -  SORT SIZE: SORT WORKSPACE ON MEMBER SIZE   *
*                       -  TOP:      SCROLL TO FIRST PAGE (ALIAS 'T') *
*                       -  XMIT:     TRANSMIT PREVIOUS QUEUED MEMBERS *
*                                    TO ANOTHER NJE NODE.             *
*                       -  =n or =n.n Return to RPFMAIN and exec.  @rp1
*                          option 'n' or option 'n.n'              @rp1
*                                                                     *
*                       IF THE PRIMARY COMMANDS ARE PRECEDED BY AN    *
*                       AMPHERSAND ('&&') THE COMMAND WILL BE REPEATED*
*                       IN THE COMMAND LINE AFTER EXECUTION.          *
*                                                                     *
*        SUBROUTINES:   RPFBRO,   THE BROWSE AND PRINT FUNCTION       *
*                       RPFEDIT,  THE EDITOR                          *
*                       RPFDAIR,  DYNAMIC ALLOCATION INTERFACE        *
*                                                                     *
*        NOTE: THE SYS1.MODGEN MACRO LIBRARY SHOULD BE INCLUDED.      *
*                                                                     *
*        25APR1997 RPR: RPFPDS MADE Y2000 COMPLIANT.                  *
*        06JUN2001 RPR: S member command added, SORT cmd added        *
*        11JUL2002 RPR: Leading zeroes in member size removed         *
*        17JUL2002 RPR: Exit at once if flag $RETURN is on         @rp1
*                       Add command '=n'/'=n.n'                    @rp1
*        21aug2002 RPR: Support RECFM=VB for print and browse      @rp3
*        14oct2002 RPR: Date in screen converted                   @rp4
*        16oct2002 RPR: Returncode browse tested                   @rp5
*        07nov2002 RPR: Extended colors supported                     *
*        07feb2003 RPR: GTSIZE removed, COMMSIZE value used        @rp7
*        20jun2003      Protect unused input fields                @pw*
*        23jun2004 RPr: Allow use of DEL key in CMD field          @rp8
*                                                                     *
*                                                                     *
*------------------------------------------ (C)-2004 SKYBIRD SYSTEMS -*
         SPACE 2
RPFPDS   CSECT                         *
         SAVE  (14,12),,*              SAVE REGISTERS
         USING RPFPDS,R15              GET LOCAL ADDRESSABILITY
         LA    R14,SAVE                NEW SAVE AREA
         ST    R13,SAVE+4              BACKWARD POINTER
         ST    R14,8(R13)              FORWARD POINTER
         LR    R13,R14                 EXCHANGE SAVEAREA
         DROP  R15                     KILL LOCAL ADDRESSABILITY
         LA    R12,2048(R13)           2ND BASE REGISTER
         LA    R12,2048(R12)
         LA    R9,2048(R12)            3RD BASE REGISTER
         LA    R9,2048(R9)
         LA    R8,2048(R9)             4TH BASE
         LA    R8,2048(R8)
         USING SAVE,R13,R12,R9,R8      GET ADDRESS VIA R13,R12,R9,R8
         B     RPFINITT                BRANCH AROUND SAVEAREA
*
SAVE     DC    18F'-1'                 SAVE AREA
         DC    CL8'&SYSDATE',C' ',CL8'&SYSTIME'
RPFINITT DS    0H
         L     R11,0(R1)               OBTAIN RPFCOMM AREA
         USING COMMAREA,R11            GET ADDRESSABILITY
         USING SPFDATA,R3              GET ADDRESSABILITY UDATA
         MVI   MSG5,C'-'               CLEAR
         MVC   MSG5+1(L'MSG5-1),MSG5        MESSAGE AREA
         MVI   SW,X'00'                CLEAR SWITH
         MVC   CMDAREA,BLANKS          CLEAR CMDAREA
         MVC   SCR5H,PDSH1             MOVE DEFAULT HEADER
         TM    INFCODE4,$RECFB+$RECVB  Fixed or variable records? @rp3
         BNZ   *+10                    NO: BRANCH                 @rp3
         MVC   SCR5H,PDSH2             ELSE MOVE DIFFERENT HEADER
         CLC   COMMSIZE,=H'24'         24 LINES GOTTEN             @rp7
         BE    START19                 YES: NORMAL 24X80 DISPLAY
         CLC   COMMSIZE,=H'32'         32 LINES GOTTEN ?           @rp7
         BE    START17                 YES: 3278/79 MODEL 3
         CLC   COMMSIZE,=H'43'         43 LINES GOTTEN ?           @rp7
         BNE   START19                 NOT ONE OF ABOVE MODEL 2 DISPLAY
START15  MVC   ERASE(2),=X'277E'       GENERATE WRITE ALTERNATE
         MVC   SCRLEN,F704             MOVE LENTGTH OF OUTPUT SCR.
         MVC   #LINES,=F'40'
         LA    R4,SCR543               LENGTH OF SCREEN TO WRITE
         ST    R4,TPUTLEN              STORE THE RESULT
         LA    R4,LINES40              40 * NEXTENT (88)
         ST    R4,NEXTSCR              STORE THE RESULT
         B     START21
START17  MVC   ERASE(2),=X'277E'       GENERATE WRITE ALTERNATE
         MVC   SCRLEN,F517             MOVE LENTGTH OF OUTPUT SCR.
         MVC   #LINES,=F'29'
         LA    R4,SCR532               LENGTH OF SCREEN TO WRITE
         ST    R4,TPUTLEN              STORE THE RESULT
         LA    R4,LINES29              29 * NEXTENT (88)
         ST    R4,NEXTSCR              STORE THE RESULT
         B     START21                 OK BRANCH
START19  MVC   ERASE(2),=X'27F5'       GENERATE WRITE
         MVC   SCRLEN,F381             MOVE LENGTH OF OUTPUT SCREEN
         MVC   #LINES,=F'21'
         LA    R4,SCR524               LENGTH OF SCREEN TO WRITE
         ST    R4,TPUTLEN              STORE THE RESULT
         LA    R4,LINES21              21 * NEXTENT (88)
         ST    R4,NEXTSCR              STORE THE RESULT
START21  EQU   *
         MVC   SCR5DSN,DSNAME          MOVE DSNAME IN SCREEN
         LA    R3,SCR5DSN+39           POINT TO END OF DSNAME
         LA    R4,36                   LOOP COUNTER
START23  EQU   *
         CLI   0(R3),C' '              TRAILING BLANK FOUND ?
         BNE   START25                 NO: END OF SCAN
         MVI   0(R3),C'-'              REPLACE BY HYPHEN
         BCTR  R3,0                    DECREASE ITS ADDRESS
         BCT   R4,START23              LOOP UNTIL ALL DONE
START25  DS    0H
         L     R2,X'4C'                GET POINTER CVT
         MVC   YYDDD,56(R2)            Get date from CVT           @rp4
         MVI   DDMMYY,X'FF'            Jul. date is 4 bytes        @rp4
         L     R15,EPCNVDT             Entry point RPFCNVDT        @rp4
         CALL  (15),(YYDDD,DDMMYY)     Convert julian to gregorian @rp4
         MVC   JULTODAY(4),CC          Year                        @rp4
         MVC   JULTODAY+4(2),MONNBR    Number of month (eg 1=jan)  @rp4
         MVC   JULTODAY+6(2),DD        Daynumber in the month      @rp4
         ZAP   MEMCNT,=P'0'            INIT MEMBER COUNTER
         TM    INFCODE,SEQALC          NOT A PO DATASET ?
         BNO   PDS000                  BRANCH IF NOT
         MVC   MSG5,ERR5TXT            ERRORMSG
RPFERROR DS    0H                      ERROR ROUTINE
         MVC   LNE5+18(8),=C'*ERROR* ' ERRORMSG
         MVC   LNE5+31(40),ERR6TXT     ERRORMSG
         UNPK  SCR5CNT,MEMCNT
         OI    SCR5CNT+4,X'F0'         CLEAR SIGN
         L     R2,TPUTLEN              LENGTH TO BE WRITTEN
         TPUT  SCR5TXT,(R2),FULLSCR
         L     R3,COMMSCR              Screen area
         TGET  (3),2200,ASIS            READ THE SCREEN
         CLOSE RPFWORK2                CLOSE THE DATASET
         L     R13,SAVE+4              PREVIOUS SAVEAREA
         RETURN (14,12),RC=0           RETURN TO CALLER
PDS000   DS    0H
         XC    SORTFW,SORTFW           0=SORTED ON MEMBER
         ZAP   MEMCNT,=P'0'            INIT MEMBER COUNTER
         OPEN  RPFWORK2                OPEN PDSDCB
         LA    R4,RPFWORK2             DCB IN REG 4
         USING IHADCB,R4               GETADDR OVER DCBD
         TM    DCBOFLGS,DCBOFOPN       SUCCESSFUL OPEN ?
         BO    RPFGETM                 GO ON IF YES
         MVC   MSG5,ERR7TXT            MOVE ERROR MSG
         B     RPFERROR                GOTO ERRORROUTINE
RPFGETM  DS    0H
         DROP  4                       KILL ADDRESSABILITY
         MVI   SCR5PDSE,C' '           DEFAULT A PDS
         MVC   SCR5VAR,=CL10'Members of' DEFAULT TEXT
         TM    INFCODE3,$PDSEDIT       RPFPDS INVOKED BY EDIT
         BNO   *+10                    NO: BRANCH
         MVC   SCR5VAR,=CL10'EDIT'     MOVE DIFFERENT TEXT
         TM    INFCODE3,$PDSBR         RPFPDS INVOKED BY BROWSE ?
         BNO   *+10                    NO: BRANCH
         MVC   SCR5VAR,=CL10'BROWSE'   MOVE DIFFERENT TEXT
         MVC   FIRSTSCR,GETMSTRT       SAVE STARTADR IN FIRSTSCR
         L     R10,GETMSTRT            AND LOAD INTO R10
         LR    R1,R10                  COPY
         S     R1,RLENGTH              MINUS 88
         ST    R1,LASTREC              INITIAL EMPTY WORKSPACE
         USING MEMBAREA,R10            GET ADDRESSABLILITY
PDS001   DS    0H                      SET PDS001 ROUT.IN 24 BIT MODE
*        LA    R1,PDS002               ROUTINE ADDRESS
*        BSM   R0,R1                   GOTO 24 BIT MODE
PDS002   DS    0H                      SET PDS001 ROUT.IN 24 BIT MODE
         READ  DECB,SF,RPFWORK2,DIRAREA,'S'
         CHECK DECB                    WAIT FOR COMPLETION
*        L     R1,=A(PDS002A+X'80000000') PICKUP ROUTINE ADDRESS
*        BSM   R0,R1                   GOTO 31 BIT MODE ADDRESSING
PDS002A  DS    0H
         LA    R3,DIRAREA              LOAD DIRECTORY BLOCK
         LR    R5,R3                   SAME ADDRESS IN R5
         AH    R5,0(R3)                ADD # OF USABLE BYTES
         BCTR  R5,0                    MINUS 1 FOR BXLE
         LA    R3,2(R3)                POINT TO FIRST MEMBER
PDS003   DS    0H
         CLI   0(R3),X'FF'             EOF ?
         BE    PDS019                  CLOSE DATASET
PDS005   DS    0H
         C     R10,GETMEND             END OF WORKSPACE REACHED ?
         BNH   PDS018                  NO: CONTINUE
         UNPK  ERR8TXT+09(5),MEMCNT    CONVERT TO ZONED IN MESSAGE
         OI    ERR8TXT+13,X'F0'        CLEAR SIGN
         MVC   MSG5,ERR8TXT            MOVE MESSAGE
         B     PDS019                  FORCE END OF FILE
PDS018   MVC   PREFIX(NEXTENT),BLANKS    BLANK AREA
         XC    PREFIX,PREFIX           BLANK THE PREFIX
         MVC   MEMBR,0(R3)             STORE MEMBER INTO AREA
         MVC   INPTTR(3),8(R3)         MOVE TTR TO WORKSPACE
         MVI   INPHL,NONHLM            MOVE HIGLIGHT CH (NO HL MDT)
         AP    MEMCNT,=P'1'            ADD MEMBER
         MVI   ALIAS,C' '              BLANK ALIAS FIELD
         TM    11(R3),X'80'            ALIAS ENTRY ?
         BNO   PDS0181                 NO: BRANCH
         MVI   ALIAS,C'A'              MARK ALIAS
PDS0181  DS    0H
         MVC   SAVEC,11(R3)            SAVE 'C' BYTE
         NI    11(R3),B'00011111'      ZERO FIRST 3 BITS OF C BYTE
         TM    INFCODE4,$RECFB+$RECVB  Fixed or variable records?  @rp3
         BNZ   PDS0185                 NO: BRANCH                  @rp3
*
*        IN THIS SECTION WILL BE LOOKED IF THE PDS-MEMBER CONTAINS
*        LINK EDIT USERDATA.
*
         SYCONVHX IN=SAVEC,OUT=INPC,L=1 SET 'C' BYTE IN WORKSPACE
         XR    R4,R4                   CLEAR REG 4
         IC    R4,11(R3)               INSERT 'C' BYTE
         SLL   R4,1                    * 2 BECAUSE HALFWORD COUNTER
         LTR   R4,R4                   NOT USERDATA PRESENT ?
         BZ    PDS0189                 YES: BRANCH
         LA    R6,INPUDATA             POINT TO USERDATA FIELD IN WS
         CLM   R4,1,=X'10'             MORE THAN 16 ?
         BNH   *+8                     NO BRANCH
         LA    R4,16                   SET TO 16
         LA    R7,12(R3)               POINT TO USERDATA OF MEMBER
PDS0183  EQU   *
         SYCONVHX IN=(7),OUT=(6),L=1   CONVERT TO EBCDIC
         LA    R7,1(R7)                POINT TO NEXT BYTE INPUT
         LA    R6,2(R6)                POINT TO NEXT BYTES OUTPUT
         BCT   R4,PDS0183              LOOP UNTIL ALL DONE
         B     PDS0189                 BRANCH
PDS0185  EQU   *
*
*        IN THE NEXT SECTION WILL BE LOOKED IF THE MEMBER IS SAVED
*        BY ISPF (SYSTEM PRODUCTIVITY FACILITY) OR WITH THE NEW FORMAT
*        USERDATA OF RPF, IF SO IT WILL BE DISPLAYED.
*
ISPFTEST CLI   11(R3),X'0F'            IS LENGTH 15 HALFWORDS ?
         BL    PDS0189                 Low: no ISPF/RPF userdata
         CLI   SPFTIME,X'23'           TEST HRS FIELD (UNSIGNED PACKED)
         BH    PDS0189                 HIGH: NO TIME FIELD
         CLI   SPFTIME+1,X'59'         TEST MINUTES FIELD (UNSIGN PKD)
         BH    PDS0189                 HIGH: NO TIME FIELD
         TM    SPFDATEI+3,X'0C'        DOES DATE CONTAIN A SIGN ?
         BNO   PDS0189                 NO: NO SPF/RPF USERDATA
         TM    SPFDATEU+3,X'0C'        DOES MOD DATE CONTAIN A SIGN ?
         BNO   PDS0189                 NO: NO SPF/RPF USERDATA
         LR    R1,R3                   A(MEMBER+TTR+UDATA) IN REG 1
         BAL   R14,SPFRPFU             ROUTINE ADDRESS
PDS0189  DS    0H
         ST    R10,LASTREC             SAVE LAST RECORD POINTER
         LA    R10,NEXTENT(R10)        NEXT ENTRY IN GETM AREA
         NI    11(R3),B'00011111'      CLEAR 1ST THREE BITS OF 'C'
         XR    R4,R4                   OF 'TTRC' IN DIR
         IC    R4,11(R3)               AND INSERT IT INTO R3
         AR    R4,R4                   DOUBLE BECAUSE HALFWORDS
         AH    R4,=H'12'               + MIN LENGTH MEMBERENTRY
         BXLE  R3,R4,PDS003            NEXT MEMBER IF POSSIBLE
         B     PDS001                  READ NEXT DIRECTORY BLK
PDS019   EQU   *                       END OF FILE PDSDCB
         CLOSE RPFWORK2                CLOSE THE FILE
         ZAP   SORTCNT,MEMCNT          SAVE THE MEMBER COUNTER
PDSREAD  EQU   *                       PUT THE MEMBERS ON THE SCREEN
         OPEN  RPFWORK2                OPEN PDS FOR INPUT
         TPUT  ERASE,L'ERASE,FULLSCR
         BAL   R14,RPFTPUT             WRITE THE SCREEN
         TITLE 'PROCESS PRIMARY COMMANDS'
PDS021   EQU   *                       PROCESS THE OUTPUT
         LA    R2,AIDBYTE              AIDBYTE ADDRESS
         LA    R5,SCREEN               SCREEN ADDRESS
         BAL   R14,CONVIN              GET THE SCREEN
         MVC   REP5,BLANKS             CLEAR COMMAND AREA
         LTR   R1,R1                   CLEAR KEY PRESSED ?
         BZ    NEWSCR                  NEW SCREEN IF YES
         CLI   SCREEN,X'6E'            RESHOW CODE ?
         BE    NEWSCR                  YES: REVIEW SCREEN
         OC    SCREEN(24),BLANKS       XLATE TO UPPERCASE
         LR    R3,R1                   SAVE REG 1
         CLI   AIDBYTE,X'7D'           ENTER KEY ?
         BE    PDS0219                 YES: BRANCH
*        CLI   AIDBYTE,X'6D'           CLEAR KEY ?
*        BE    NEWSCR                  YES: NEW SCREEN
         LA    R2,SCREEN               ADDRESS OF SCREEN FOR PFK ROUT
         LA    R1,AIDBYTE              AIDBYTE ADDRESS
         BAL   R14,PFK                 FETCH PFK DEFINITIONS
         LTR   R15,R15                 ALLRIGTH ?
         BZ    PDS0219                 YES EXEC COMMAND
         C     R15,F0004               CONFIRMATION ?
         BE    PDS0217                 NO DONT EXEC COMMAND
         C     R15,F0008               PFK NOT DEFINED ?
         BE    PDS0215                 ERROR
         MVC   MSG5,ERRATXT            PFK DEFINITION INVALID
         MVC   REP5,BLANKS             BLANK COMMAND AREA
         BAL   R14,RPFTPUT             WRITE SCREEN
         MVC   MSG5,BLANKS             BLANK MESSAGE AREA
         B     PDS021                  REVIEW SCREEN
PDS0215  MVC   MSG5,ERR9TXT            MOVE ERROR MESSAGE
         MVC   REP5,BLANKS             BLANK COMMAND AREA
         BAL   R14,RPFTPUT             WRITE SCREEN
         MVC   MSG5,BLANKS             BLANK MESSAGE AREA
         B     PDS021                  REVIEW SCREEN
PDS0217  EQU   *
         MVI   MSG5,C'-'               CLEAR
         MVC   MSG5+1(L'MSG5-1),MSG5         MESSAGE
         MVC   REP5,SCREEN             REPEAT COMMAND
         BAL   R14,RPFTPUT             CONFIRMATION IS YES
         B     PDS021                  REVIEW SCREEN
PDS0219  EQU   *
         CLI   SCREEN,C'?'             CLEAR PRESSED ?
         BNE   PDS022                  GO ON IF NOT
NEWSCR   EQU   *
         MVC   REP5,BLANKS             BLANK REPLY AREA
         OI    SW,$ERASE               MARK ERASE ON
         BAL   R14,RPFTPUT             PUT THE SCREEN
         B     PDS021                  PROCESS THE SCREEN
PDS022   EQU   *
         MVI   MSG5,C'-'               CLEAR
         MVC   MSG5+1(L'MSG5-1),MSG5        MESSAGE AREA
         C     R3,SCRLEN               LENGTH NOT CHANGED ?
         BE    PDS023                  ALLRIGHT
         MVC   MSG5,ERR4TXT            MOVE ERROR MSG
         BAL   R14,RPFTPUT             WRITE SCREEN
         MVC   MSG5,BLANKS             BLANK ERROR MSG
         B     PDS021                  AND READ THE SCREEN
PDS023   EQU   *                       PROCESS THE COMMANDS
         MVC   BUFFER(24),SCREEN       MOVE COMMAND
         CLI   BUFFER,C'&&'            &&  ENTERED ?
         BNE   PDS0231                 NO: NO REPEAT
         MVC   SCREEN(24),BUFFER+1     MOVE COMMAND BACK WITHOUT '&&'
         MVI   SCREEN+23,C' '
         MVC   REP5,BUFFER             REPEAT COMMAND
PDS0231  DS    0H
         BAL   R14,RPFSCRN             PROCESS 'S' 'D' 'R' 'P' AND 'E'
         LTR   R15,R15                 RC <> 0000 ?                @rp1
         BNZ   PDS999                  EXIT (return or =n.n cmd)   @rp1
         TM    SW,$CHANGE              SOMETHING CHANGED ?
         BNO   PDS024                  PROCESS CMDS IF NOT CHANGED
         CLC   SCREEN(24),BLANKS       NO COMMAND ENTERED ?
         BE    PDS023A                 DO NOT WRITE PAUSE MSG
         MVC   MSG5,INF1TXT            MOVE PAUSE MESSAGE
         CLI   REP5,C' '               NO COMMAND IN COMMAND AREA
         BNE   PDS023A                 NO: GO ON
         MVC   REP5(24),SCREEN         ELSE REPEAT COMMAND
PDS023A  BAL   R14,RPFTPUT             WRITE THE SCREEN
         MVC   MSG5,BLANKS             CLEAR MSG AREA
         NI    SW,X'FF'-$CHANGE        SET MODIFICATIONS OFF
         B     PDS021                  AND PROCESS THE SCREEN
PDS024   EQU   *                       PROCESS THE SCREEN
         CLC   SCREEN(3),=C'SCF'       'SCF' COMMAND (ALIAS OF FORWARD)
         BNE   PDS028                  NO: OTHER COMMANDS
         L     R10,FIRSTSCR            FIRST LINE ON SCREEN
         AL    R10,NEXTSCR             NEXT SCREEN
         C     R10,LASTREC             COMPARE WITH ENDADDRESS
         BH    PDS027                  ERROR IF HIGH
         CLI   MEMBR,C' '              BLANK ENTRY ?
         BE    PDS027                  ERROR BLANKS AT THE END
         ST    R10,FIRSTSCR            NEW FIRST LINE
         BAL   R14,RPFTPUT             WRITE THE SCREEN
         B     PDS021                  PROCESS THE SCREEN
PDS027   EQU   *                       ERROR IN 'FORWARD' COMMAND
         MVC   MSG5,ERR1TXT            PAGE FORWARD NO EFFECT
         BAL   R14,RPFTPUT
         B     PDS021                  PROCESS THE SCREEN
PDS028   CLC   SCREEN(3),=C'PFK'       PFK ENTERED ?
         BNE   PDS031                  NO: TEST NEXT COMMAND
         LINK  EP=RPFPFK,PARAM=((11)),VL=1 PFK DEF MODULE
         B     NEWSCR                  WRITE NEW SCREEN
PDS031   EQU   *                       PROCESS 'BACK' COMMAND
         CLC   SCREEN(3),=C'SCB'       'SCB' COMMAND (ALIAS OF BACK) ?
         BNE   PDS035                  NO: OTHER COMMANDS
         L     R10,FIRSTSCR            1ST LINE ON SCREEN
         C     R10,GETMSTRT            ALREADY FIRST SCREEN ?
         BNH   PDS034                  YES: SCROLL HAD NO EFFECT
         SL    R10,NEXTSCR             1 SCREEN BACK
         C     R10,GETMSTRT            AND COMPARE WITH BEGIN
         BNL   *+8                     IF LOW: RESET TO FIRST SCREEN
         L     R10,FIRSTREC            RESET TO FIRST SCREEN
         ST    R10,FIRSTSCR            NEW 1ST LINE
         BAL   R14,RPFTPUT             WRITE THE SCREEN
         B     PDS021                  AND PROCESS THE SCREEN
PDS034   EQU   *                       ERROR ROUT 'BACK'
         MVC   MSG5,ERR1TXT            PAGE BACK NO EFFECT
         BAL   R14,RPFTPUT             PUT THE SCREEN
         B     PDS021                  PROCESS THE SCREEN
PDS035   CLI   SCREEN,C'B'             BOTTOM COMMAND ?
         BNE   PDS036                  NO PROCESS OTHER COMMANDS
         L     R3,LASTREC              LOAD BEGIN ADDRESS
         SL    R3,NEXTSCR              SUBSTRAC SCREEN LENGTH
         LA    R3,NEXTENT(R3)                MINUS ONE
         C     R3,FIRSTREC             BEFORE FIRSTREC ?
         BNL   *+8                     NO: PROCEED
         L     R3,FIRSTREC             DIVIDE BY LENGTH SCREEN
         ST    R3,FIRSTSCR             SAVE ADDRESS
         BAL   R14,RPFTPUT             WRITE THE SCREEN
         B     PDS021                  PROCESS THE SCREEN
PDS036   DS    0H
         CLC   SCREEN(2),=C'L '        'LOCATE ON MEMBER COMMAND'
         BNE   PDS037                  NO: PROCESS OTHER COMMANDS
         BAL   R14,LOCATE              Try to locate string
         LTR   R15,R15                 Found ?
         BZ    PDS03601                Yes: branch
         MVC   MSG5,ERRCTXT            MOVE ERROR MESSAGE
         MVC   REP5(24),SCREEN         REPEAT COMMAND
PDS03601 DS    0H
         BAL   R14,RPFTPUT             WRITE THE SCREEN
         B     PDS021                  PROCESS THE SCREEN
PDS037   DS    0H
         CLC   SCREEN(2),=C'S '        'SELECT' member command
         BNE   PDS038                  NO: PROCESS OTHER COMMANDS
         CLC   SORTFW,F0000            Sorted on membername?
         BE    PDS03701                Yes: Ok, branch
         MVC   MSG5,ERRGTXT            MOVE ERROR MESSAGE
         B     PDS03709                Branch
PDS03701 DS    0H
         BAL   R14,LOCATE              Try to locate member
         LA    R1,SCREEN+2             Point to name after 'S' command
         BAL   R14,BLDL                Try to find member in PDS
         LR    R3,R15                  Save Return code
         TM    INFCODE3,$PDSBR         Invoked by Browse?
         BNO   PDS03707                No edit member
         LTR   R3,R3                   Member found in PDS
         BZ    PDS03705                Yes: found
         MVC   MSG5,ERRHTXT            MOVE ERROR msg (member not fnd)
         MVC   REP5(24),SCREEN         REPEAT COMMAND
         B     PDS03709                Branch
PDS03705 DS    0H
         LA    R1,MEMBR                To be browsed member
         BAL   R14,BROWSE              Browse member
         TPUT  ERASE,L'ERASE,FULLSCR
         TM    INFCODE2,$RETURN   Return entered or = cmd from bro @rp1
         BO    PDS999                  Yes: branch                 @rp1
         B     PDS03709
PDS03707 DS    0H
         MVC   EDITTBLE(8),SCREEN+2    Move membername
         MVI   EDITTBLE+8,X'FF'
         LTR   R3,R3                   Member found ?
         BZ    PDS03708                Yes: edit (update) member
         OI    INFCODE,DATAENT         Else create member
PDS03708 DS    0H
         BAL   R14,EDIT
         TPUT  ERASE,L'ERASE,FULLSCR
         TM    INFCODE2,$RETURN  Return entered or = cmd from EDIT @rp1
         BO    PDS999                  Yes: branch                 @rp1
PDS03709 DS    0H
         BAL   R14,RPFTPUT             WRITE THE SCREEN
         B     PDS021                  PROCESS THE SCREEN
PDS038   EQU   *                       PROCESS 'TOP' COMMAND
         CLC   SCREEN(3),=C'TOP'       TOP ENTERED ?
         BE    PDSTOP                  YES: PROCESS COMMAND
         CLC   SCREEN(2),=C'T '        TOP COMMAND (ALIAS 'T') ?
         BNE   PDS039                  NO: OTHER COMMANDS
PDSTOP   MVC   FIRSTSCR,GETMSTRT       FIRST LINE IS 1ST MEMBER
         BAL   R14,RPFTPUT             WRITE THE SCREEN
         B     PDS021                  AND PROCESS THE SCREEN
PDS039   EQU   *
         CLI   SCREEN,C'='             =n or =n.n command?         @rp1
         BNE   PDS040                  NO: BRANCH                  @rp1
         MVC   CMAINOPT,SCREEN+1       Move options                @rp1
         OI    INFCODE2,$RETURN        Set return indicator        @rp1
         B     PDS999                  And terminate (to main)     @rp1
PDS040   DS    0H                                                  @rp1
         CLC   SCREEN(6),=C'RETURN'    RETURN COMMAND ?
         BNE   PDS041                  NO: BRANCH
         OI    INFCODE2,$RETURN        SET RETURN INDICATOR
         B     PDS999                  AND TERMINATE