         MACRO
&NAME    SORT  &TAB,&LEN1,&LEN2,&ENTRY,&START,&TYPE=C
         LCLC  &L
&L       SETC  'L&SYSNDX'
.* THIS MACRO SORTS A CORE TABLE
.* AND USED IN THE RPF PROGRAMS FROM SKYBIRD SYSTEMS
         AIF   ('&TAB' EQ '').FOUTADR
         AIF   ('&LEN1' EQ '').FOUTL1
         AIF   ('&LEN2' EQ '').FOUTL2
         AIF   ('&ENTRY' EQ '').FOUTENT
         AIF   ('&TYPE' EQ 'C').CHAR
         AIF   ('&TYPE' EQ 'P').CHAR
         MNOTE 14,'***** TYPE NOT ''C'' OR ''P'''
.FOUT    MNOTE *,'***** NO MACRO EXPANSION.'
         MEXIT
.FOUTADR MNOTE 14,'***** WRONG TABLE ADDRESS.'
         AGO   .FOUT
.FOUTL1  MNOTE 14,'***** WRONG LENGTH 1.'
         AGO   .FOUT
.FOUTL2  MNOTE 14,'PPPPP WRONG LENGTH 2.'
         AGO   .FOUT
.FOUTENT MNOTE 14,'***** WRONG NUMBER OF ENTRIES.'
         AGO   .FOUT
.*
.* OPERANDS ARE GOOD.
.*
.*
.CHAR    ANOP
         CNOP  0,4            FULLWORD BOUNDARY.
&NAME    STM   3,4,&L.A
         B     &L.C
&L.A     DS    F
         DS    F
&L.F     DS    F
&L.B     DS    F
         AIF   ('&TAB'(1,1) EQ '(').TABREG1
&L.C     LA    3,&TAB
         AGO   .STORE3
.TABREG1 ANOP
&L.C     LR    3,&TAB(1)
.STORE3  ANOP
         ST    3,&L.B
         AIF   ('&ENTRY'(1,1) EQ '(').ENTRREG
         B     &L.E
&L.D     DC    A((&ENTRY-1)*&LEN1)
         AGO   .ADD3
.ENTRREG ANOP
         BCTR  &ENTRY(1),0
         MH    &ENTRY(1),=H'&LEN1'
         ST    &ENTRY(1),&L.D
         B     &L.E
&L.D     DS    F
.ADD3    ANOP
&L.E     L     4,&L.D
         AR    3,4
         ST    3,&L.F
         AIF   ('&TAB'(1,1) EQ '(').TABREG2
         LA    3,&TAB
         AGO   .LOAD4
.TABREG2 ANOP
         LR    3,&TAB(1)
.LOAD4   ANOP
         LA    4,&LEN1.(3)
         AIF   ('&TYPE' EQ 'P').PACKED
&L.H     CLC   &START.(&LEN2,3),&START.(4)
         AGO   .VERDER
.PACKED  ANOP
&L.H     CP    &START.(&LEN2,3),&START.(&LEN2,4)
.VERDER  ANOP
         BH    &L.G
         LA    3,&LEN1.(3)
         LA    4,&LEN1.(4)
         C     3,&L.F
         BE    &L.I
         B     &L.H
&L.G     XC    0(&LEN1,3),0(4)
         XC    0(&LEN1,4),0(3)
         XC    0(&LEN1,3),0(4)
         S     3,=F'&LEN1'
         S     4,=F'&LEN1'
         C     3,&L.B
         BNL   &L.H
         A     3,=F'&LEN1'
         A     4,=F'&LEN1'
         B     &L.H
&L.I     LM    3,4,&L.A
         MEND
RPFVTOC  TITLE 'RPF EDIT A VOLUME TABLE OF CONTENTS'
*---------------------------------------------------------------------*
*                                                                     *
*        MODULE:        RPFVTOC.                                      *
*                                                                     *
*        FUNCTION:     PRESENT A MENU TO ALLOCATE A VOLUME (Option @rp1
*                       1,2,V) or option X (PFK3/PFK15) to exit    @rp1
*                       IF THE VOLUME IS ALLOCATED A VTOC WILL        *
*                       BE MADE OF THAT VOLUME. THE OUTPUT WILL       *
*                       BE PLACED INTO THE EDIT WORKSPACE.            *
*                       If a dataset level has been specified      @rp3
*                       control will be passed to                  @rp3
*                       RPFLISTC to search the catalog             @rp3
*                       If both dataset level an volume            @rp3
*                       are specified only the datasets starting   @rp3
*                       with 'level' will be filtered out on that  @rp3
*                       volume.                                    @rp3
*                                                                  @rp1
*                       In option -2-, module RPFEDIT (the editor) @rp1
*                       will be invoked to manupulate with this list  *
*                       After completion of RPFEDIT the menu will  @rp1
*                       re-appear.                                 @rp1
*                                                                  @rp1
*                       In option -1-, module RPFVTOC1 will be     @rp1
*                       invoked to display a selection list of all @rp1
*                       the datasets on the volume                 @rp1
*                       in RPFVTOC1 you can select a dataset to    @rp1
*                       EDIT, Delete, View or Member list          @rp1
*                       After completion of RPFVTOC1 the menu will @rp1
*                       re-appear.                                 @rp1
*                                                                  @rp1
*                       With option V only a summary will be       @rp1
*                       displayed and the menu will re-appear      @rp1
*                                                                  @rp1
*                       IF AN ERROR OCCURS, THE MENU WILL BE          *
*                       REDISPLAYED WITH A SUITABLE ERROR MESSAGE.    *
*                                                                  @rp1
*                       SUPPORT IS AVAILABLE FOR INDEXED VTOCS,       *
*                       WHICH IS ANNOUNCED AS 'DATA FACILITIES/DEVICE *
*                       SUPPORT' (DF/DS JDM1134).                     *
*                       THIS LOADMODULE WILL RUN IN A NON DF/DS       *
*                       SYSTEM TOO, HOWEVER IF RPFVTOC SHOULD BE      *
*                       ASSEMBLED ON A NON DF/DS SYSTEM, YOU          *
*                       SHOULD ASSEMBLE RPFVTOC WITH 'SYSPARM(NODFDS)'*
*                                                                     *
*        NOTES:         IF PARM=LONG IS USED EACH DATASET ENTRY IN    *
*                       VTOC OUTPUT CONTAINS OF TWO LINES. THE        *
*                       DATASET NAME AND THE START ADDRESS OF THE DS  *
*                       IS SPECIFIED IN AN EXTRA LINE (Option 2 only) *
*                                                                     *
*                       IF PARM=VOL IS USED ON EACH DATASET ENTRY     *
*                       THE CREATION DATE HAS BEEN REPLACE BY THE     *
*                       VOLUME AND NO HEADERS AND NO TRAILOR LINES    *
*                       ARE PRODUCED (Option 2 only)                  *
*                                                                     *
*                       THE DLIB: SYS1.AMODGEN MACLIB SHOULD BE       *
*                       INCLUDED IN THE ASSEMBLY OF RPFVTOC.          *
*                                                                     *
*                       ASSEMBLE RPFVTOC ON A SYSTEM WHICH SUPPORTS   *
*                       INDEXED VTOCS (DF/DS) ELSE ASSEMBLE RPFVTOC   *
*                       WITH 'SYSPARM(NODFDS)'                        *
*                                                                     *
*        RETURNCODES SET IN RTNCODE FIELD:                            *
*                       00   SUCCESSFUL. CONTROL WILL BE TO RPFEDIT.  *
*                       04   TERMINATED AT END OF WORKSPACE.          *
*                       08   EXIT ENTERED BY USER.                    *
*                                                                     *
*        Modifications:                                               *
*        2002/07/07 RPr: add third header with device constants       *
*        2002/08/28 RPr: Move EDIT vtoc to option 2. Add option    @rp1
*                        1 for a dataset selection list and option @rp1
*                        V for a VTOC Summary in the menu.         @rp1
*        2002/09/21 RPr: Move UCBTYP to CMDAREA for RPFVTOC1       @rp2
*        2002/10/31 RPr: Add hlq in screen and call RPFLISTC       @rp3
*        2002/11/09 RPr: 7 color support added                     @rp4
*        2002/11/13 RPr: Increase length of dataset level to 17 pos@rp5
*        2006/03/19 RPr: Obtain dataset prefix from COMMAREA       @rp6
*                                                                     *
*------------------------------------------ (C)-2006 SKYBIRD SYSTEMS -*
         SPACE 2
RPFVTOC  CSECT
         SAVE  (14,12),,*              SAVE REGISTERS
         USING RPFVTOC,R15             TEMP ADDRESSABILITY
         LA    R14,SAVE                SAVE AREA
         ST    R13,SAVE+4              BACKWARD POINTER
         ST    R14,8(R13)              FORWARD POINTER
         LR    R13,R14
         B     START                   BRANCH AROUND SAVE AREA
SAVE     DC    18F'-1'                 SAVE AREA
         DC    CL8'&SYSDATE',C' ',CL8'&SYSTIME'
START    DS    0H
         DROP  R15                     KILL LOCAL ADDRESSABILITY
         LA    R12,2048(R13)           SECOND BASE
         LA    R12,2048(R12)
         LA    R10,2048(R12)           Third base                  @rp1
         LA    R10,2048(R10)                                       @rp1
         USING SAVE,R13,R12,R10                                    @rp1
         L     R11,0(R1)               RPFCOMM AREA
         USING COMMAREA,R11            GET ADDRESSABILITY
         MVC   VIRS(6),=CL6' N/A '
         MVC   DSCBS(6),=CL6' N/A '
         MVC   SCR1TXT(2),=X'27F5'     MOVE DEFAULT WRITE CC
         MVC   SCR3LAST+1(2),=X'5CF0'  DEFAULT R24,C01 FOR LAST LINE
         CLC   COMMSIZE,=H'43'         43 LINES RECEIVED ?         @rp1
         BE    START1                  YES: BRANCH
         CLC   COMMSIZE,=H'32'         32 LINES RECEIVED ?         @rp1
         BE    START2                  YES: BRANCH
         B     START3                  ELSE DEFAULT
START1   MVC   SCR1TXT(2),=X'277E'     WRITE CC ALTERNATE
         MVC   SCR3LAST+1(2),=X'F460'  R43,C01 FOR LAST LINE
         B     START3                  AND BRANCH
START2   MVC   SCR1TXT(2),=X'277E'     WRITE CC ALTERNATE
         MVC   SCR3LAST+1(2),=X'E6F0'  R32,C01 FOR LAST LINE
         B     START3                  AND BRANCH
START3   DS    0H
         MVC   SCR3CMD(1),BUFCMD       Move previous option        @rp1
         MVC   DPARM,=C'SHORT'         MOVE DEFAULT PARM
         MVC   VOL,BLANKS              BLANK VOLUME
         MVC   HLQ,COMMPFX             Move HLQ from COMMAREA      @rp6
*                                                                  @rp6
         MVC   SCR3UID(7),USERID       USERID INTO SCREEN
         LA    R3,SCR3UID+7            REPLACE TRAILING BLANKS
         LA    R4,7                    MAX 7 TIMES
UID1     CLI   0(R3),C' '              TRAILING BLANK FOUND ?
         BNE   UID99                   NO: EXIT
         MVI   0(R3),C'-'              REPLACE BY HYPHEN
         BCTR  R3,R0                   DECREASE BY 1
         BCT   R4,UID1                 LOOP UNTIL ALL DONE
UID99    EQU   *
         XC    RTNCODE,RTNCODE         INIT RTNCODE
         XC    EPNEXT,EPNEXT           INIT EPNEXT
         MVI   MSG3,C'-'               Clear message               @rp3
         MVC   MSG3+1(21),MSG3                                     @rp3
RESTART  DS    0H
         XC    SW,SW                   CLEAR SWITCH
         TPUT  SCR1TXT,SCR1LEN,FULLSCR
         MVC   SCR3VOL,VOL             MOVE VOLUME ID
         MVC   SCR3HLQ,HLQ             Move dataset level          @rp3
         MVC   SCR3PARM,DPARM          MOVE PARM
         TPUT  SCR3TXT,SCR3LEN,FULLSCR
         MVI   MSG3,C'-'               CLEAR MESSAGE
         MVC   MSG3+1(21),MSG3
         MVC   SCR3LNE1,BLANKS         Blank info lines            @rp1
         MVC   SCR3LNE2,BLANKS         Blank info lines            @rp1
         MVC   SCR3LNE3,BLANKS         Blank info lines            @rp1
         MVC   SCR3LNE4,BLANKS         Blank info lines            @rp1
         MVC   SCR3LNE5,BLANKS         Blank info lines            @rp1
         MVC   SCR3ERR,BLANKS          Blank error line            @rp1
GET1     LA    R5,BUFFER               OUTPUT FORMATTED BUFFER
         L     R3,COMMSCR              LOAD SCREEN ADDRESS
         TGET  (R3),150,ASIS           READ THE SCREEN             @rp5
         LR    R4,R1                   SAVE LENGTH
*        DO AN TGET ASIS TO OBTAIN THE AID BYTE
*        AFTER THE TGET ASIS REMOVE THE SBA'S FROM THE OUTPUT
         CLI   0(R3),X'F3'             PFK3 (END) PRESSED
         BE    END                     YES: TERMINATE RPF
         CLI   0(R3),X'C3'             PFK15 (END) PRESSED
         BE    END                     YES: TERMINATE RPF
         XR    R2,R2                    INIT OUTPUT LENGTH
         LR    R4,R1                   SAVE INPUT LENGTH
         SH    R4,=H'3'                SKIP AID AND CURSOR ADDRESS
         C     R4,F0000                REGISTER ZERO
         BNH   CONV099                 NOT HIGH: END OF ROUTINE
         LA    R3,3(R3)
         LA    R5,BUFFER               OUTPUT ADDRESS
*        INPUT SCREEN IS POINTED TO BY R3
*        OUTPUT SCREEN IS POINTED TO BY R5
*        THE NEXT SECTION WILL REMOVE ALL THE SBA'S
CONV001  CLI   0(R3),X'11'             SET BUFFER ADDRESS ?
         BE    CONV003                 YES: SKIP NEXT 3 BYTES INPUT
CONV002  MVC   0(1,R5),0(R3)           MOVE INPUT BYTE
         LA    R3,1(R3)                NEXT BYTE INPUT
         LA    R2,1(R2)                COUNT OUTPUT BYTES
         LA    R5,1(R5)                NEXT BYTE OUTPUT
         BCT   R4,CONV001              TEST NEXT BYTE
         B     CONV099                 END OF ROUTINE
CONV003  LA    R3,3(R3)                SKIP 3 BYTES INPUT
         BCTR  R4,0                    MINUS 1 BCT
         BCTR  R4,0                    MINUS 1 BCT
         C     R4,F0000                REGISTER ZERO ?
         BNH   CONV099                 YES: TERMINATE CONVERSION
         BCT   R4,CONV001              TEST NEXT BYTE
CONV099  LR    R1,R2                   OUTPUT LENGTH IN REGISTER 1
         OC    BUFFER,BLANKS           XLATE TO UPPERCASE
RPF004   LA    R2,BUFFER               STARTADDRESS BUFFER
         LTR   R1,R1                   NOTHING RECEIVED ?
         BZ    RESTART                 YES: REDISPLAY
         LR    R3,R1                   LENGTH OF BUFFER
         LA    R4,BUFCMD               COMMAND
         MVC   BUFCMD,BLANKS           BLANK
         MVC   DPARM,BLANKS              THE
         MVC   VOL,BLANKS                    FIELDS
         MVC   HLQ,BLANKS                                          @rp3
RPF004A  EQU   *
         CLC   0(7,R2),=C'LEVEL ='     HLQ operand found?          @rp3
         BE    RPF004B                 Yes: branch                 @rp3
         MVC   0(1,R4),0(R2)           move 1 byte command         @rp3
         LA    R4,1(R4)                Next byte in command        @rp3
         LA    R2,1(R2)                Examine next byte           @rp3
         BCT   R3,RPF004A              Branch                      @rp3
         B     RESTART                 CLEAR key pressed           @rp3
RPF004B  EQU   *                                                   @rp3
         LA    R2,7(R2)                Point after 'Level ='       @rp3
         LA    R4,HLQ                  High level qualifier        @rp3
RPF005   EQU   *
         CLC   0(7,R2),=C'VOLUME='     VOLUME OPERAND FOUND ?
         BE    RPF007                  YES: BRANCH
         MVC   0(1,R4),0(R2)           MOVE 1 BYTE HLQ             @rp3
         LA    R4,1(R4)                NEXT BYTE IN HLQ            @rp3
         LA    R2,1(R2)                EXAMINE NEXT BYTE
         BCT   R3,RPF005               BRANCH
         B     RESTART                 CLEAR KEY PRESSED
RPF007   EQU   *
         LA    R2,7(R2)                POINT AFTER 'VOLUME='
         LA    R4,VOL                  VOLUME ADDRESS
RPF008   EQU   *
         CLC   0(6,R2),=C',PARM='      'PARM' KEYWORD FOUND ?
         BE    RPF009                  YES: END OF SCAN
         MVC   0(1,R4),0(R2)           MOVE BYTE VOLUME
         LA    R2,1(R2)                NEXT BYTE INPUT
         LA    R4,1(R4)                NEXT BYTE OUTPUT
         BCT   R3,RPF008               BRANCH
         B     RESTART                 CLEAR KEY PRESSED
RPF009   EQU   *
         LA    R2,6(R2)                POINT AFTER ',PARM='
         LA    R4,DPARM                PARM
RPF010   EQU   *
         CLC   0(7,R2),=C'DDNAME='     'DDNAME' KEYWORK FOUND ?
         BE    RPF011                  YES: END OF SCAN
         MVC   0(1,R4),0(R2)           MOVE BYTE PARM
         LA    R2,1(R2)                NEXT BYTE INPUT
         LA    R4,1(R4)                NEXT BYTE OUTPUT
         BCT   R3,RPF010               BRANCH
         B     RESTART                 CLEAR KEY PRESSED
RPF011   DS    0H
         CLI   BUFCMD,C' '             Blank in cmd field?         @rp1
         BNE   *+8                     No: test other values       @rp1
         MVI   BUFCMD,C'1'             Default option 1            @rp1
         CLI   BUFCMD,C'X'             EXIT ENTERED ?
         BE    END                     GO TO UTIL MENU
         CLC   VOL,BLANKS              VOLUME NOT SPECIFIED ?
         BNE   RPF011A                 BRANCH IF NOT               @rp1
         CLI   BUFCMD,C'1'             Option 1 ?                  @rp3
         BNE   RPF011#2                No: branch                  @rp3
         CLC   HLQ,BLANKS              Dataset level specified?    @rp3
         BE    RPF011#2                Yes; Branch                 @rp3
         LINK  EP=RPFLISTC,PARAM=(HLQ,(11)) Search catalog         @rp3
         B     RPF011#1(R15)           Run thru branchlist         @rp3
RPF011#1 DS    0H                                                  @rp3
         B     RPF011#5                RC=0000                     @rp3
         B     RPF011#5                RC=0004 (truncated)         @rp3
         B     RPF011#3                RC=0008 (no datasets fnd)   @rp3
         B     RPF011#4       RC=0012  Alloc. error IDCAMS files   @rp3
RPF011#2 DS    0H                                                  @rp3
         MVC   MSG2(L'ERR3TXT),ERR3TXT Volume/level not specified  @rp3
         B     ERROR
RPF011#3 DS    0H                                                  @rp3
         MVC   MSG2(L'ERR5TXT),ERR5TXT No datasets matched         @rp3
         B     ERROR                                               @rp3
RPF011#4 DS    0H                                                  @rp3
         MVC   MSG2(L'ERR6TXT),ERR6TXT Severe error in RPFLISTC    @rp3
         B     ERROR                                               @rp3
RPF011#5 DS    0H                                                  @rp3
         ZAP   #DS,CMDAREA(3)          # datasets                  @rp3
         MVC   CMDAREA,BLANKS          Blank cmdarea first         @rp3
         MVC   CMDAREA(4),=C'LVL='     Tell XPFVTOC1 that a        @rp5
         MVC   CMDAREA+4(17),HLQ       Catalog has been searched   @rp5
         ZAP   CMDAREA+21(3),#DS       # of datasets in CMDAREA    @rp5
         L     R15,EPVTOC1             Point to RPFVTOC1 module    @rp3
         CALL  (15),((11))             Branch to module            @rp3
         TM    INFCODE2,$RETURN        Return indicator set?       @rp3
         BNO   RESTART                 Present menu if not         @rp3
         B     RETURN                  Else return                 @rp3
RPF011A  DS    0H                                                  @rp1
         CLI   BUFCMD,C'1'             -1- SELECTED (sel.list)     @rp1
         BE    RPF012AA                CONTINUE                    @rp1
         CLI   BUFCMD,C'2'             -2- SELECTED ?              @rp1
         BE    RPF012A                 CONTINUE                    @rp1
         CLI   BUFCMD,C'V'             -V- SELECTED (Summary)      @rp1
         BE    RPF012AB                CONTINUE                    @rp1
         MVC   MSG2(L'ERR2TXT),ERR2TXT MOVE ERROR MSG
         MVC   SCR2CMD,BUFCMD          Move the default option     @rp1
         B     ERROR                   REVIEW SCREEN
RPF012A  DS    0H
         MVC   HEAD0PRM,=C'SHORT'      MOVE  DEFAULT PARM IN HEAD0
         CLC   DPARM(4),=C'LONG'       IS PARM LONG USED ? (EXTRA DSN)
         BNE   RPF012B                 NO BRANCH
RPF012AA DS    0H                                                  @rp1
         OI    SW,$LONG                SET FLAG
         MVC   HEAD0PRM,=C'LONG '      MOVE IN HEADER
         B     RPF012Z
RPF012AB DS    0H                      Display summary in menu     @rp1
         MVC   HEAD0PRM,BLANKS         Do not set PARM in opt V    @rp1
         B     RPF012Z                 Branch                      @rp1
RPF012B  DS    0H
         CLC   DPARM(3),=C'VOL'        IS PARM VOL  USED ?
*        WITH PARM=VOL IN EACH VTOC LINE THE VOLUME WILL BE SET AND
*        NO HEADERS AND TRAILORS WILL BE PRODUCED.
*        THE VOLUME IS PLACED INSTEAD OF THE CREATION DATE
         BNE   RPF012C                 NO BRANCH
         OI    SW,$VOL                 SET FLAG
         B     RPF012Z
RPF012C  CLC   DPARM(5),=C'SHORT'      IS PARM SHORT USED ?
         BE    RPF012Z                 BRANCH
         MVC   MSG2(L'ERR4TXT),ERR4TXT ERROR msg (Invalid parm)    @rp1
         B     ERROR                   ERROR ROUTINE
RPF012Z  DS    0H
         SYALLOC DDN=VTOC,DSN=F4DSN,DISP1=SHR,MF=E,VOL=VOL,            X
               UNITA=COMMUNIT
         LTR   R15,R15                 ALLOC OK ?
         BZ    RPF013                  YES: PROCEED
         MVC   MSG2(L'ERR1TXT),ERR1TXT Volume not available        @rp1
         B     ERROR                   ERROR ROUTINE
ERROR    EQU   *
         MVC   SCR3VOL,VOL             MOVE VOLUME
         MVC   SCR3PARM,DPARM          MOVE PARM
         MVI   SCR2CMD,C' '            Blank command field         @rp1
         TPUT  SCR2TXT,SCR2LEN,FULLSCR
         MVI   BUFCMD,C' '             CLEAR COMMAND
         B     GET1                    REVIEW SCREEN
END      MVC   RTNCODE,F0008           MOVE RETURN CODE
         SYALLOC FREE=VTOC,MF=E        FREE THE DATASET
         B     RETURN                  RETURN
RPF013   RDJFCB DCBIN                  READ JFCB OF DCBIN
         MVC   HVOL,VOL                MOVE VOLUME INTO TRAILOR LINE
         MVC   HEAD0VOL,VOL            MOVE VOLUME NAME INTO HEADER
         TIME  DEC                     GET TIME OF DAY
         SRL   R0,4                    SHIFT OUT HUNDREDS OF SECONDS
         ST    R0,TIMEWORK             STORE TIME
         ST    R1,DATEWORK               AND DATE
         OI    TIMEWORK+3,X'0F'        INSERT SIGN IN TIME
         MVC   TIMEDISP,TIMEPATT       MOVE PATTERN FOR EDIT
         MVC   DATEDISP,DATEPATT       MOVE PATTERN FOR EDIT
         ED    TIMEDISP,TIMEWORK       EDIT THE TIME
         ED    DATEDISP,DATEWORK+1     EDIT THE DATE
         MVC   HEAD0DTE,DATEDISP+1     MOVE DATE IN HEADER LINE
         MVC   HEAD0TME,TIMEDISP+2     MOVE TIME IN HEADER LINE
         MVC   JFCB(44),F4404          DSN=X'04040404'
         OPEN  DCBIN,TYPE=J            OPEN F4 DSCB
         READ  DECB1,SF,DCBIN,AREA1,140
         CHECK DECB1
         MVC   MSG2(L'MSG1TXT),MSG1TXT MOVE VTOC RUNNING MESSAGE
         TPUT  SCR2TXT,SCR2LEN,FULLSCR
         LA    R2,AREA1+44             POINT TO DATA PORTION F4DSCB
         USING IECSDSL4,R2             GET ADDRESSABILITY
         MVC   TRKCYL,DS4DEVSZ+2       # TRACK PER CYLINDER
         XC    #FREDSCB,#FREDSCB       INIT # OF BLANK DSCBS
         MVC   #FREDSCB+2(2),DS4DSREC  # OF emtpy dscb's
         MVC   CURCCHHR(4),DS4VTOCE+2  MOVE START ADDRESS OF VTOC
         MVI   CURR,X'01'              START WITH FIRST RECORD
         MVC   HICCHHR(5),DS4HPCHR     MOVE HIGH-WATER MARK
         MVC   DSCBTRK(1),DS4DEVDT     # DSCBS ON A TRACK
         XR    R3,R3                   CLEAR REGISTER
         IC    R3,DS4DEVDT             # DSCBS ON A TRACK
         CVD   R3,DWB                  CONVERT TO DECIMAL
         UNPK  HEAD1DS,DWB             PUT IN EBCDIC IN HEADER
         OI    HEAD1DS+1,X'F0'         CLEAR SIGN
         IC    R3,DS4DEVDB             # DIRECTORY BLKS ON A TRACK
         CVD   R3,DWB                  CONVERT TO DECIMAL
         UNPK  HEAD1DIR,DWB            PUT IN EBCDIC IN HEADER
         OI    HEAD1DIR+1,X'F0'        CLEAR SIGN
         SYCONVHX IN=DS4VTOCE+2,OUT=HEAD1EX1,L=4 START ADDRESS VTOC
         SYCONVHX IN=DS4VTOCE+6,OUT=HEAD1EX2,L=4 END   ADDRESS VTOC
         SYCONVHX IN=DS4VTOCI,OUT=HEAD1VTI,L=1   VTOC INDICATORS
         XR    R3,R3                   CLEAR REGISTER         @20020707
         ICM   R3,3,DS4DEVSZ+2         TRACKS/CYL             @20020707
         CVD   R3,DWB                  convert to decimal     @20020707
         UNPK  HEAD2TCY,DWB            Put in EBCDIC in headr @20020707
         OI    HEAD2TCY+1,X'F0'        CLEAR SIGN             @20020707
         ICM   R3,3,DS4DEVTK           Bytes on a track       @20020707
         CVD   R3,DWB                  convert to decimal     @20020707
         UNPK  HEAD2TRK,DWB            Put in EBCDIC in headr @20020707
         OI    HEAD2TRK+4,X'F0'        CLEAR SIGN             @20020707
         ICM   R3,3,DS4DEVSZ           Cyls on a volume       @20020707
         CVD   R3,DWB                  convert to decimal     @20020707
         UNPK  HEAD2#CY,DWB            Put in EBCDIC in headr @20020707
         OI    HEAD2#CY+4,X'F0'        CLEAR SIGN             @20020707
         DROP  R2                      KILL ADDRESSABILITY
         XC    #FREECYL,#FREECYL       INIT #FREECYL
         XC    #FREETRK,#FREETRK       INIT #FREETRK
         XC    #EXT,#EXT               INIT #EXT
         XC    LARGTRK,LARGTRK         INIT LARGTRK
         XC    LARGCYL,LARGCYL         INIT LARGCYL
         ZAP   CRDCNT,=P'0'            INIT RECORD COUNTER
         ZAP   DSNCNT,=P'0'            INIT DATASETS COUNTER
         L     R9,GETMSTRT             STARTADDRESS WORKSPACE
         ST    R9,FIRSTREC             BECOME FIRSTREC
         S     R9,RLENGTH              MINUS 80
         ST    R9,LASTREC              INIT LASTREC
         MVC   MEMBER,BLANKS           CLEAR MEMBERNAME
         MVC   MEMBER(6),VOL           VOLUME SERIAL
         MVC   HEAD0VTC,=C'OS'         DEFAULT OS VTOC IN HEAD0
         LA    R5,DCBIN                LOAD DCB ADDRESS
         USING IHADCB,R5               GET TEMP ADDR.
         L     R5,DCBDEBAD             GET DEB ADDRESS
         ST    R5,DEBADDR              SAVE ADDRESS
         DROP  R5                      KILL ADDR. OF DCB
         USING DEBBASIC,R5             GET ADDRESSABILITY OF DEB
         XR    R6,R6                   CLEAR GR 6
         LA    R6,DEBISAM              POINT AFTER BASIC SECTION
         DROP  R5                      KILL ADDR OF BASIC SECTION
         USING DEBDASD,R6              GET ADDRESSABILITY OF DASD SEC.
         L     R6,DEBUCBAD             LOAD UCB ADDRESS
         DROP  R6                      KILL LOCAL ADDRESSABILITY
         USING VTOCUCB,R6              GET LOCAL ADDRESSABILITY
         SYCONVHX IN=UCBCHAN,OUT=HEAD0UCB,L=2 Move unit address
         MVC   VOLTYP,UCBTYP           Move UCB-type               @rp2
         DROP  R6                      KILL LOCAL ADDRESSABILITY
         AIF   ('&SYSPARM' EQ 'NODFDS').NODFDS1
**** START OF INCLUSION DF/DS (JDM1134) STATEMENTS
         CVAFTST UCB=(6)               TEST IF VTOC IS INDEXED
         C     R15,F0008               DOES VOLUME CONTAIN AN VTOXIX
         BNE   RPF014                  NO: TREAT VOLUME AS UNINDEXED
         XC    BUFLIST(BFLHLN+BFLELN),BUFLIST CLEAR BUFFER LIST
         MVC   DS1DSNAM,F4404          STARTING WITH VTOC DSNAME
         OI    BFLHFL,BFLHDSCB         BUFLIST DESCRIBES DSCB'S
         LA    R1,DS1FMTID             LOAD RECEIVING AREA ADDRESS
         ST    R1,BFLEBUF              SET IN BUFLIST
         MVI   BFLELTH,DSCBLTH         MARK DATA PORTION OF DSCB READ
         MVI   BFLHNOE,1               ONE BUFFER LIST ENTRY
         MVC   HEAD0VTC,=C'IX'         MARK INDEXED VTOC TYPE IN HEAD0
         XC    AREA1,AREA1             INITIAL ZERO
         USING IECSDSF5,R2             GET ADDR OVER F5 DSCB
         MVC   CVPL(CVPLNGTH),CVPL5    MOVE CVAFDSM CVPL           @rp1
VTOCIDX  TM    SW,$EOD                 ALL EXTENTS DONE ?
         BO    RPF014                  YES: GO ON:
         LA    R2,AREA1                LOAD AREA ADDRESS
         XC    EXTS,EXTS               CLEAR AREA
         MVC   EXTS(L'DS5AVEXT),DS5MAVET+L'DS5MAVET-L'DS5AVEXT
*        MOVE LAST EXTENT FROM SIM. F5DSCB TO FIRST ENTRY IN
*        EXTENT TABLE
         L     R5,DEBADDR              RELOAD DEB ADDRES
         CVAFDSM MF=(E,CVPL),DEB=(5)   OBTAIN VOLUME EXTENTS
         LTR   R15,R15                 CVAFDSM ALRIGHT ?
         BZ    IDXCONT                 NO: DO NOT READ EXTENTS
         C     R15,F0004               END OF DATA CVAFDSM ?
         BNE   INDEXER                 NO: OTHER ERROR
         CLI   CVSTAT,STAT032          END OF DATA ?
         BNE   INDEXER                 YES: PROCEED
         OI    SW,$EOD                 MARK LAST CREATED F5 DSCB
         B     IDXCONT                 PROCESS FORMAT 5 DSCB
INDEXER  CVD   R15,DWB                 CONVERT RETURN CODE
         UNPK  IDXERC(4),DWB           CONVERT TO EBCDIC
         OI    IDXERC+3,X'F0'          CLEAR SIGN
         SYCONVHX IN=CVSTAT,OUT=IDXSTAT,L=1 MOVE ERROR STATUS
         MVC   IDXTXT(10),=CL10'MAP=VOLUME' MOVE TYPE OF ERROR
         MVC   SCR3ERR,IDXERR          Move error msg in screen    @rp1
         NI    SW,X'FF'-$IDX           CONTINUE NON-INDEXED
         MVC   HEAD0VTC,=C'OS'         SET TYPE BACK TO OS
         B     RPF014                  CONTINUE
IDXCONT  MVC   DS5AVEXT(L'DS5AVEXT+L'DS5EXTAV),EXTS MOVE IN EXTENTS
         MVC   DS5MAVET,EXTS+L'DS5AVEXT+L'DS5EXTAV MOVE REMAINING
         OI    SW,$IDX                 MARK INDEXED VTOC
         B     FORM501                 PROCESS BUILT F5 DSCB
         DROP  R2
***** END OF INCLUSION OF THE DF/DS (JDM1134 STATEMENTS)
.NODFDS1 ANOP
RPF014   DS    0H
         CLI   BUFCMD,C'1'             Option '1' selected         @rp1
         BE    RPF015                  Yes: Skip headers           @rp1