         MACRO
&NAME    TGET  &BFF,&SIZE,&EDIT,&WAIT,&MF=                     @G76XRYU
.* THIS VERSION IS FROM PTF UZ29403 PUT IN THIS PDS BY CBT
.*                                                                 @01A
.* $MAC(TGET) COMP(Y@) PROD(TIOC):                                 @01A
.*                                                                 @01A
.* CHANGE ACTIVITY =                                               @01A
.* A000000-999999                                              @G76XR00
.* C44364000,44376000                                          @OZ42972
.* $01=OZ43111  ETI1106  79.11.28  579667:                         @01A
.* C448976                                                     @ZA44765
.*                                                                 @01A
         LCLA  &OPT,&FLAGON,&FLAGOFF                           @G76XRYU
         LCLB  &RET,&E,&W                                          @01C
         LCLC  &ERROPT,&NDX                                    @G76XRYU
&NDX     SETC  '&SYSNDX'                                       @G76XRYU
&OPT     SETA  X'80'
&FLAGOFF SETA  145                     ..SET FOR AND OPERATION @G76XRYU
         AIF   (N'&SYSLIST LE 4).POSOPOK  ..# POS. OPERANDS OK @G76XRYU
         MNOTE 12,'IHB300 EXCESSIVE POSITIONAL OPERANDS SPECIFIED'
         MEXIT                                                 @G76XRYU
.POSOPOK ANOP                            ..CHECK VALID MF PARM @G76XRYU
         AIF   ('&MF' EQ '').FORMOK                            @G76XRYU
         AIF   ('&MF' EQ 'I' OR '&MF' EQ 'L' OR ('&MF(1)' EQ 'E' AND N'X
               &MF EQ 2)).FORMOK                               @G76XRYU
         MNOTE 12,'IHB303 INVALID OPERAND MF=&MF'              @G76XRYU
         MEXIT                                                 @G76XRYU
.FORMOK  ANOP                                                  @G76XRYU
         AIF   (('&BFF' EQ '' OR '&SIZE' EQ '') AND ('&MF' EQ '' OR '&MX
               F' EQ 'I')).ERROR1   ..STANDARD FORM ERROR..    @G76XRYU
         AIF   ('&EDIT' EQ 'R').RF      CHECK FOR R FORM
         AIF   ('&EDIT' EQ '').WAIT       SKIP IF NULL
         AIF   ('&EDIT' EQ 'EDIT').EDI    SET EDIT
         AIF   ('&EDIT' EQ 'ASIS').ASI    SET ASIS
         AIF   ('&EDIT' EQ 'WAIT').WAI    SET WAIT (EDIT PARM OMITTED)
         AIF   ('&EDIT' EQ 'NOWAIT').NOW  SET NOWAIT (EDIT OMITTED)
&ERROPT  SETC  '&EDIT'                  SET FOR ERROR MSG
         AGO   .ERROR3
.WAIT    ANOP
&RET     SETB  1
         AIF   ('&WAIT' EQ '').CHKFORM    SKIP IF NULL
         AIF   ('&WAIT' EQ 'EDIT').EDI    SET EDIT
         AIF   ('&WAIT' EQ 'ASIS').ASI    SET ASIS
         AIF   ('&WAIT' EQ 'WAIT').WAI    SET WAIT
         AIF   ('&WAIT' EQ 'NOWAIT').NOW  SET NOWAIT
&ERROPT  SETC  '&WAIT'                  SET FOR ERROR MSG
         AGO   .ERROR3
.EDI     ANOP
         AIF   (&E).ERROR2              DUP OPTION
&E       SETB  1                        EDIT OPTION SPECFIED
&FLAGOFF SETA  &FLAGOFF-1               EDIT FOR EXEC FORM     @G76XRYU
         AGO   .RET
.ASI     ANOP
         AIF   (&E).ERROR2              DUP OPTION
&E       SETB  1                        EDIT OPTION SPECFIED
&OPT     SETA  &OPT+1                   ASIS OPTION            @G76XRYU
&FLAGON  SETA  &FLAGON+1                SET ASIS FOR EXECUTE   @G76XRYU
         AGO   .RET
.WAI     ANOP
         AIF   (&W).ERROR2              DUP OPTION
&W       SETB  1                        WAIT OPTION SPECIFIED
&FLAGOFF SETA  &FLAGOFF-16              SET WAIT OPTION FOR EX @G76XRYU
         AGO   .RET
.NOW     ANOP
         AIF   (&W).ERROR2              DUP OPTION
&W       SETB  1                        WAIT OPTION SPECIFIED
&OPT     SETA  &OPT+16                  NOWAIT OPTION          @G76XRYU
&FLAGON  SETA  &FLAGON+16               SET NOWAIT OPT FOR EX  @G76XRYU
         AGO   .RET
.RET     ANOP
         AIF   (&RET).CHKFORM                                  @G76XRYU
         AGO   .WAIT                    NEXT POSITION
.CHKFORM ANOP                                                  @G76XRYU
         AIF   ('&MF' EQ 'L').LFORM    ..LIST EXPANSION...     @G76XRYU
         AIF   ('&MF' EQ 'I' OR '&MF' EQ '').OLDFORM STANDARD      @01C
.******************                                            @G76XRYU
.*  EXECUTE FORM  *                                            @G76XRYU
.******************                                            @G76XRYU
&NAME    CNOP  0,4                     TGET EXECUTE FORM       @G76XRYU
         AIF   ('&MF(2)'(1,1) EQ '(').MFREG  ..IF PARM IS RX.. @G76XRYU
         LA    1,&MF(2)                R1=> EXECUTE PARM LIST  @G76XRYU
         AGO   .GOTPARM                                        @G76XRYU
.MFREG   ANOP                                ..ELSE, IN A REG. @G76XRYU
         AIF   ('&MF(2)' EQ '(1)').GOTPARM  ..IF NOT REG 1..   @G76XRYU
         LR    1,&MF(2)                POINT R1 AT PARM LIST   @G76XRYU
.GOTPARM ANOP                    ...CHECK FLAG BIT SETTINGS    @G76XRYU
         MVI   0(1),0                  INSURE HI BIT OF R0 OFF @G76XRYU
         AIF   (&FLAGOFF EQ 145).SKIPAND .ANY FLAGS TURNED OFF @G76XRYU
         NI    4(1),&FLAGOFF           RESET TGET FLAGS1       @G76XRYU
.SKIPAND ANOP                    ...CHECK FOR FLAGS TO TURN ON @G76XRYU
         AIF   (&FLAGON EQ 0).PARMCK ..SKIP OR IF NO RESETS    @G76XRYU
         OI    4(1),&FLAGON            RESET TGET FLAGS 1      @G76XRYU
.PARMCK  ANOP                                                      @01C
         AIF   ('&SIZE' EQ '').CKBUFF  ...IF BUFF SIZE GIVEN.. @G76XRYU
         AIF   ('&SIZE'(1,1) EQ '(').SIZEREG ..IF INTEGER FORM @G76XRYU
         AIF   (T'&SIZE NE 'N').AROUND         .VALID & ^ NEG. @OZ42972
         AIF   (&SIZE GT 32767).SIZERR          ..NOT > 32767. @G76XRYU
.AROUND  ANOP                                                      @01C
         B     *+6                      BR AROUND SIZE             @01C
         DC    AL2(&SIZE)               SIZE CAN EXCEED 4095       @01C
         LH    0,*-2                   GET THE SIZE VALUE      @G76XRYU
         STH   0,2(1)                  INTO THE PARM LIST      @G76XRYU
         AGO   .CKBUFF                                         @G76XRYU
.SIZEREG ANOP                                  ..ELSE A REG..  @G76XRYU
         STH   &SIZE(1),2(1)           PUT BUFFER SIZE IN PARM @G76XRYU
.CKBUFF  ANOP                                                  @G76XRYU
         AIF   ('&BFF' EQ '').LOAD      ..IF A BUFF ADDR GIVEN @G76XRYU
         AIF   ('&BFF'(1,1) EQ '(').BUFFREG  ..IF AN RX ADDR.. @G76XRYU
         LA    0,&BFF                  GET ADDR OF INPUT BUFF  @G76XRYU
         STCM  0,B'0111',5(1)          PUT IN THE PARM LIST    @G76XRYU
         AGO   .LOAD                                           @G76XRYU
.BUFFREG ANOP                                ..ELSE A REG..    @G76XRYU
         STCM  &BFF(1),B'0111',5(1)    STORE BUFF ADDR IN PARM @G76XRYU
.LOAD    ANOP                          ..LOAD 0 & 1 FOR SVC..  @G76XRYU
         LM    0,1,0(1)                REG 0: BUFFER SIZE      @G76XRYU
*                                      REG 1: FLAGS,BUFF ADDR  @G76XRYU
         AGO   .SVC                                                @01C
.******************                                            @G76XRYU
.*   LIST FORM    *                                            @G76XRYU
.******************                                            @G76XRYU
.LFORM   ANOP                                                  @G76XRYU
&NAME    DS    0F                      TGET LIST FORM          @G76XRYU
         DC    H'0'                    MUST BE 0 FOR TGET      @G76XRYU
         AIF   ('&SIZE' NE '').LSTSIZE  ..IF NO BUFFER SIZE..  @G76XRYU
         DC    H'0'                    BUFFER SIZE HALFWORD    @G76XRYU
         AGO   .LBFADDR                                        @G76XRYU
.LSTSIZE ANOP                           ..ELSE A BUFFER SIZE.. @G76XRYU
         AIF   ('&SIZE'(1,1) EQ '(').REGERR  ..IF NOT A REG..  @G76XRYU
         AIF   (T'&SIZE NE 'N').ARNSIZL IF AN INTEGER              @01C
         AIF   (&SIZE GT 32767).SIZERR        .AND NOT >32767. @G76XRYU
.ARNSIZL DC    AL2(&SIZE)              INPUT BUFFER SIZE           @01C
.LBFADDR ANOP                          ...CHECK FOR BUFF ADDR. @G76XRYU
         DC    AL1(&OPT)               TGET FLAGS              @G76XRYU
         AIF   ('&BFF' NE '').LBFFLAB  ..IF NO BUFFER ADDR..   @G76XRYU
         DC    AL3(0)                  INPUT BUFFER ADDRESS    @G76XRYU
         MEXIT                                                 @G76XRYU
.LBFFLAB ANOP                          ..ELSE BUFFER ADDRESS.. @G76XRYU
         AIF   ('&BFF'(1,1) EQ '(').REGERR  ..IF NOT A REG..   @G76XRYU
         DC    AL3(&BFF)               INPUT BUFFER ADDRESS    @G76XRYU
         MEXIT                                                 @G76XRYU
.REGERR  ANOP                                                  @G76XRYU
         MNOTE 12,'IHB300 INCOMPATIBLE OPERANDS: MF=L, REGISTER OPERAND*
                SPECIFIED'                                     @G76XRYU
         MEXIT                                                 @G76XRYU
.OLDFORM AIF   ('&BFF'(1,1) EQ '(' OR '&SIZE'(1,1) EQ '(').REGST   @01C
.*                                                                 @01P
.*   REGULAR EXPANSION                                             @01P
.*                                                                 @01P
&NAME    CNOP  0,4                                             @ZA44765
         B     *+12                    BRANCH AROUND CONSTANTS @ZA44765
         DC    AL2(0)                   FILLER                     @01P
         DC    AL2(&SIZE)               BUFFER SIZE                @01P
         DC    AL1(&OPT)                OPTION BITS                @01P
         DC    AL3(&BFF)                ADDR OF BUFFER             @01P
         LM    0,1,*-8                  LOAD PARAMETER REGISTERS   @01P
.SVC     SVC   93                       ISSUE SVC                  @01P
         SPACE 1                                                   @01C
         MEXIT                                                     @01P
.*                                                                 @01P
.*   REGISTER NOTATION                                             @01P
.*                                                                 @01P
.REGST   ANOP                                                      @01P
&NAME    B     *+8                      BRANCH AROUND CONSTANT     @01P
         AIF   ('&BFF'(1,1) EQ '(' AND '&SIZE'(1,1) EQ '(').BOTH   @01C
.*                                      PARAMETERS ARE IN REG FORM @01C
         AIF   ('&SIZE'(1,1) EQ '(').SZREG   SIZE IN REG           @01P
.*                                                                 @01P
.*   BUFFER ADDR IN REGISTER FORM                                  @01P
.*                                                                 @01P
         DC    AL1(&OPT)                OPTION BITS                @01P
         DC    AL3(0)                   BUFFER ADDR                @01P
         LA    1,0(,&BFF(1))            CLR HIGH ORDR BYTE + LD BFR@01P
         O     1,*-8                    SET OPTIONS                @01P
         LA    0,&SIZE                  LOAD SIZE OF BUFFER        @01P
         AGO   .SVC                     GOTO ISSUE SVC             @01P
.*                                                                 @01P
.*   BUFFER SIZE IN REGISTER FORM                                  @01P
.*                                                                 @01P
.SZREG   DC    AL1(&OPT)                OPTION BITS                @01P
         DC    AL3(&BFF)                BUFFER ADDR                @01P
         L     1,*-4                    LOAD PARAMETER REGISTER    @01P
         AIF   ('&SIZE' EQ '(0)').SVC   SIZE IN REG. 0             @01P
         LR    0,&SIZE(1)               LOAD BUFFER SIZE IN REG 0  @01P
         AGO   .SVC                     GOTO ISSUE SVC             @01P
.*                                                                 @01P
.*   WHEN BOTH ARE IN REGISTER NOTATION                            @01P
.*                                                                 @01P
.BOTH    DC    AL1(&OPT)                OPTION BITS                @01P
         DC    AL3(0)                   BUFFER ADDR                @01P
         LA    1,0(,&BFF(1))            CLR HIGH ORDR BYTE + LD BFR@01P
         O     1,*-8                    SET OPTIONS                @01P
         AIF   ('&SIZE' EQ '(0)').SVC   GOTO SVC IF (0) SPECIFIED  @01P
         LR    0,&SIZE(1)               LOAD BUFFER SIZE IN REG 0  @01P
         AGO   .SVC                     GOTO ISSUE SVC             @01P
.RF      ANOP                                                      @01P
         AIF   ('&WAIT' NE '').RERR                                @01P
         AIF   ('&BFF'(1,1) NE '(' OR '&SIZE'(1,1) NE '(').RERR    @01P
&NAME    DS    0H                                                  @01P
         AIF   ('&BFF' EQ '(1)').SIZE                              @01P
         LR    1,&BFF(1)                LOAD BUFFER ADDRESS IN REG @01P
.SIZE    AIF   ('&SIZE' EQ '(0)').SVC                              @01P
         LR    0,&SIZE(1)               LOAD BUFFER SIZE IN REG 0  @01P
         AGO   .SVC                                                @01P
.SIZERR  MNOTE 12,'IHB300 SIZE NOT IN RANGE 0-32767'               @01C
         MEXIT                                                 @G76XRYU
.RERR    IHBERMAC 192                                              @01P
         MEXIT                                                     @01P
.ERROR1  IHBERMAC 24                                               @01P
         MEXIT                                                     @01P
.ERROR2  IHBERMAC 54,,,                                            @01P
         MEXIT                                                     @01P
.ERROR3  IHBERMAC 49,,&ERROPT                                      @01P
         MEND
         EJECT
TGETTEST CSECT
         USING TGETTEST,12,11
         DS    51X  33 IN HEX
BUFFER   DS    0X
SIZE     EQU   119  77 IN HEX
R2       EQU   2
R3       EQU   3
         TGET BUFFER
         TGET ,SIZE
         TGET ,,EDIT
         TGET ,,,WAIT
         TGET ,,,,MF=I
*        ALL SINGLE PARMS
         TGET BUFFER,SIZE
         TGET BUFFER,,EDIT
         TGET BUFFER,,,WAIT
         TGET BUFFER,,,,MF=I
*        ALL BUFFER + 1 PARM
         TGET BUFFER,SIZE,EDIT
         TGET BUFFER,SIZE,,WAIT
         TGET BUFFER,SIZE,,,MF=I
* ALL BUFFER + 2 PARMS
         TGET BUFFER,SIZE,EDIT,WAIT
         TGET BUFFER,SIZE,EDIT,,MF=I
*        ALL BUFFER +3 PARMS
         TGET BUFFER,SIZE,EDIT,WAIT,MF=I
*  ALL PARMS
         TGET ,SIZE,EDIT
         TGET ,SIZE,,WAIT
         TGET ,SIZE,,,MF=I
* ALL SIZE + 1 PARM
         TGET ,SIZE,EDIT,WAIT
         TGET ,SIZE,=EDIT,,MF=I
* ALL SIZE + 2 PARMS
         TGET ,SIZE,EDIT,WAIT,MF=I
* ALL SIZE + ALL PARMS BUT BUFFER
         TGET ,,EDIT,WAIT
         TGET ,,EDIT,MF=I
         TGET ,,EDIT,WAIT,MF=I
* ALL REST OF EDIT COMBINATIONS
         TGET ,,,WAIT,MF=I
* ALL POSSIBLE COMBINATIONS OF OPERANDS?
         TGET (R2)
         TGET ,SIZE
         TGET ,,EDIT
         TGET ,,,WAIT
         TGET ,,,,MF=I
*        ALL SINGLE PARMS
         TGET (R2),SIZE
         TGET (R2),,EDIT
         TGET (R2),,,WAIT
         TGET (R2),,,,MF=I
*        ALL (R2) + 1 PARM
         TGET (R2),SIZE,EDIT
         TGET (R2),SIZE,,WAIT
         TGET (R2),SIZE,,,MF=I
* ALL (R2) + 2 PARMS
         TGET (R2),SIZE,EDIT,WAIT
         TGET (R2),SIZE,EDIT,,MF=I
*        ALL (R2) +3 PARMS
         TGET (R2),SIZE,EDIT,WAIT,MF=I
*  ALL PARMS
         TGET ,SIZE,EDIT
         TGET ,SIZE,,WAIT
         TGET ,SIZE,,,MF=I
* ALL SIZE + 1 PARM
         TGET ,SIZE,EDIT,WAIT
         TGET ,SIZE,=EDIT,,MF=I
* ALL SIZE + 2 PARMS
         TGET ,SIZE,EDIT,WAIT,MF=I
* ALL SIZE + ALL PARMS BUT (R2)
         TGET ,,EDIT,WAIT
         TGET ,,EDIT,MF=I
         TGET ,,EDIT,WAIT,MF=I
* ALL REST OF EDIT COMBINATIONS
         TGET ,,,WAIT,MF=I
* ALL POSSIBLE COMBINATIONS OF OPERANDS?
         TGET (2)
         TGET ,SIZE
         TGET ,,EDIT
         TGET ,,,WAIT
         TGET ,,,,MF=I
*        ALL SINGLE PARMS
         TGET (2),SIZE
         TGET (2),,EDIT
         TGET (2),,,WAIT
         TGET (2),,,,MF=I
*        ALL (2) + 1 PARM
         TGET (2),SIZE,EDIT
         TGET (2),SIZE,,WAIT
         TGET (2),SIZE,,,MF=I
* ALL (2) + 2 PARMS
         TGET (2),SIZE,EDIT,WAIT
         TGET (2),SIZE,EDIT,,MF=I
*        ALL (2) +3 PARMS
         TGET (2),SIZE,EDIT,WAIT,MF=I
*  ALL PARMS
         TGET ,SIZE,EDIT
         TGET ,SIZE,,WAIT
         TGET ,SIZE,,,MF=I
* ALL SIZE + 1 PARM
         TGET ,SIZE,EDIT,WAIT
         TGET ,SIZE,=EDIT,,MF=I
* ALL SIZE + 2 PARMS
         TGET ,SIZE,EDIT,WAIT,MF=I
* ALL SIZE + ALL PARMS BUT (2)
         TGET ,,EDIT,WAIT
         TGET ,,EDIT,MF=I
         TGET ,,EDIT,WAIT,MF=I
* ALL REST OF EDIT COMBINATIONS
         TGET ,,,WAIT,MF=I
* ALL POSSIBLE COMBINATIONS OF OPERANDS?
         TGET 12(2)
         TGET ,SIZE
         TGET ,,EDIT
         TGET ,,,WAIT
         TGET ,,,,MF=I
*        ALL SINGLE PARMS
         TGET 12(2),SIZE
         TGET 12(2),,EDIT
         TGET 12(2),,,WAIT
         TGET 12(2),,,,MF=I
*        ALL 12(2) + 1 PARM
         TGET 12(2),SIZE,EDIT
         TGET 12(2),SIZE,,WAIT
         TGET 12(2),SIZE,,,MF=I
* ALL 12(2) + 2 PARMS
         TGET 12(2),SIZE,EDIT,WAIT
         TGET 12(2),SIZE,EDIT,,MF=I
*        ALL 12(2) +3 PARMS
         TGET 12(2),SIZE,EDIT,WAIT,MF=I
*  ALL PARMS
         TGET ,SIZE,EDIT
         TGET ,SIZE,,WAIT
         TGET ,SIZE,,,MF=I
* ALL SIZE + 1 PARM
         TGET ,SIZE,EDIT,WAIT
         TGET ,SIZE,=EDIT,,MF=I
* ALL SIZE + 2 PARMS
         TGET ,SIZE,EDIT,WAIT,MF=I
* ALL SIZE + ALL PARMS BUT 12(2)
         TGET ,,EDIT,WAIT
         TGET ,,EDIT,MF=I
         TGET ,,EDIT,WAIT,MF=I
* ALL REST OF EDIT COMBINATIONS
         TGET ,,,WAIT,MF=I
* ALL POSSIBLE COMBINATIONS OF OPERANDS?
         TGET BUFFER
         TGET ,100
         TGET ,,EDIT
         TGET ,,,WAIT
         TGET ,,,,MF=I
*        ALL SINGLE PARMS
         TGET BUFFER,100
         TGET BUFFER,,EDIT
         TGET BUFFER,,,WAIT
         TGET BUFFER,,,,MF=I
*        ALL BUFFER + 1 PARM
         TGET BUFFER,100,EDIT
         TGET BUFFER,100,,WAIT
         TGET BUFFER,100,,,MF=I
* ALL BUFFER + 2 PARMS
         TGET BUFFER,100,EDIT,WAIT
         TGET BUFFER,100,EDIT,,MF=I
*        ALL BUFFER +3 PARMS
         TGET BUFFER,100,EDIT,WAIT,MF=I
*  ALL PARMS
         TGET ,100,EDIT
         TGET ,100,,WAIT
         TGET ,100,,,MF=I
* ALL 100 + 1 PARM
         TGET ,100,EDIT,WAIT
         TGET ,100,=EDIT,,MF=I
* ALL 100 + 2 PARMS
         TGET ,100,EDIT,WAIT,MF=I
* ALL 100 + ALL PARMS BUT BUFFER
         TGET ,,EDIT,WAIT
         TGET ,,EDIT,MF=I
         TGET ,,EDIT,WAIT,MF=I
* ALL REST OF EDIT COMBINATIONS
         TGET ,,,WAIT,MF=I
* ALL POSSIBLE COMBINATIONS OF OPERANDS?
         TGET (R2)
         TGET ,100
         TGET ,,EDIT
         TGET ,,,WAIT
         TGET ,,,,MF=I
*        ALL SINGLE PARMS
         TGET (R2),100
         TGET (R2),,EDIT
         TGET (R2),,,WAIT
         TGET (R2),,,,MF=I
*        ALL (R2) + 1 PARM
         TGET (R2),100,EDIT
         TGET (R2),100,,WAIT
         TGET (R2),100,,,MF=I
* ALL (R2) + 2 PARMS
         TGET (R2),100,EDIT,WAIT
         TGET (R2),100,EDIT,,MF=I
*        ALL (R2) +3 PARMS
         TGET (R2),100,EDIT,WAIT,MF=I
*  ALL PARMS
         TGET ,100,EDIT
         TGET ,100,,WAIT
         TGET ,100,,,MF=I
* ALL 100 + 1 PARM
         TGET ,100,EDIT,WAIT
         TGET ,100,=EDIT,,MF=I
* ALL 100 + 2 PARMS
         TGET ,100,EDIT,WAIT,MF=I
* ALL 100 + ALL PARMS BUT (R2)
         TGET ,,EDIT,WAIT
         TGET ,,EDIT,MF=I
         TGET ,,EDIT,WAIT,MF=I
* ALL REST OF EDIT COMBINATIONS
         TGET ,,,WAIT,MF=I
* ALL POSSIBLE COMBINATIONS OF OPERANDS?
         TGET (2)
         TGET ,100
         TGET ,,EDIT
         TGET ,,,WAIT
         TGET ,,,,MF=I
*        ALL SINGLE PARMS
         TGET (2),100
         TGET (2),,EDIT
         TGET (2),,,WAIT
         TGET (2),,,,MF=I
*        ALL (2) + 1 PARM
         TGET (2),100,EDIT
         TGET (2),100,,WAIT
         TGET (2),100,,,MF=I
* ALL (2) + 2 PARMS
         TGET (2),100,EDIT,WAIT
         TGET (2),100,EDIT,,MF=I
*        ALL (2) +3 PARMS
         TGET (2),100,EDIT,WAIT,MF=I
*  ALL PARMS
         TGET ,100,EDIT
         TGET ,100,,WAIT
         TGET ,100,,,MF=I
* ALL 100 + 1 PARM
         TGET ,100,EDIT,WAIT
         TGET ,100,=EDIT,,MF=I
* ALL 100 + 2 PARMS
         TGET ,100,EDIT,WAIT,MF=I
* ALL 100 + ALL PARMS BUT (2)
         TGET ,,EDIT,WAIT
         TGET ,,EDIT,MF=I
         TGET ,,EDIT,WAIT,MF=I
* ALL REST OF EDIT COMBINATIONS
         TGET ,,,WAIT,MF=I
* ALL POSSIBLE COMBINATIONS OF OPERANDS?
         TGET 12(2)
         TGET ,100
         TGET ,,EDIT
         TGET ,,,WAIT
         TGET ,,,,MF=I
*        ALL SINGLE PARMS
         TGET 12(2),100
         TGET 12(2),,EDIT
         TGET 12(2),,,WAIT
         TGET 12(2),,,,MF=I
*        ALL 12(2) + 1 PARM
         TGET 12(2),100,EDIT
         TGET 12(2),100,,WAIT
         TGET 12(2),100,,,MF=I
* ALL 12(2) + 2 PARMS
         TGET 12(2),100,EDIT,WAIT
         TGET 12(2),100,EDIT,,MF=I
*        ALL 12(2) +3 PARMS
         TGET 12(2),100,EDIT,WAIT,MF=I
*  ALL PARMS
         TGET ,100,EDIT
         TGET ,100,,WAIT
         TGET ,100,,,MF=I
* ALL 100 + 1 PARM
         TGET ,100,EDIT,WAIT
         TGET ,100,=EDIT,,MF=I
* ALL 100 + 2 PARMS
         TGET ,100,EDIT,WAIT,MF=I
* ALL 100 + ALL PARMS BUT 12(2)
         TGET ,,EDIT,WAIT
         TGET ,,EDIT,MF=I
         TGET ,,EDIT,WAIT,MF=I
* ALL REST OF EDIT COMBINATIONS
         TGET ,,,WAIT,MF=I
* ALL POSSIBLE COMBINATIONS OF OPERANDS?
         TGET BUFFER
         TGET ,(R3)
         TGET ,,EDIT
         TGET ,,,WAIT
         TGET ,,,,MF=I
*        ALL SINGLE PARMS
         TGET BUFFER,(R3)
         TGET BUFFER,,EDIT
         TGET BUFFER,,,WAIT
         TGET BUFFER,,,,MF=I
*        ALL BUFFER + 1 PARM
         TGET BUFFER,(R3),EDIT
         TGET BUFFER,(R3),,WAIT
         TGET BUFFER,(R3),,,MF=I
* ALL BUFFER + 2 PARMS
         TGET BUFFER,(R3),EDIT,WAIT
         TGET BUFFER,(R3),EDIT,,MF=I
*        ALL BUFFER +3 PARMS
         TGET BUFFER,(R3),EDIT,WAIT,MF=I
*  ALL PARMS
         TGET ,(R3),EDIT
         TGET ,(R3),,WAIT
         TGET ,(R3),,,MF=I
* ALL (R3) + 1 PARM
         TGET ,(R3),EDIT,WAIT
         TGET ,(R3),=EDIT,,MF=I
* ALL (R3) + 2 PARMS
         TGET ,(R3),EDIT,WAIT,MF=I
* ALL (R3) + ALL PARMS BUT BUFFER
         TGET ,,EDIT,WAIT
         TGET ,,EDIT,MF=I
         TGET ,,EDIT,WAIT,MF=I
* ALL REST OF EDIT COMBINATIONS
         TGET ,,,WAIT,MF=I
* ALL POSSIBLE COMBINATIONS OF OPERANDS?
         TGET (R2)
         TGET ,(R3)
         TGET ,,EDIT
         TGET ,,,WAIT
         TGET ,,,,MF=I
*        ALL SINGLE PARMS
         TGET (R2),(R3)
         TGET (R2),,EDIT
         TGET (R2),,,WAIT
         TGET (R2),,,,MF=I
*        ALL (R2) + 1 PARM
         TGET (R2),(R3),EDIT
         TGET (R2),(R3),,WAIT
         TGET (R2),(R3),,,MF=I
* ALL (R2) + 2 PARMS
         TGET (R2),(R3),EDIT,WAIT
         TGET (R2),(R3),EDIT,,MF=I
*        ALL (R2) +3 PARMS
         TGET (R2),(R3),EDIT,WAIT,MF=I
*  ALL PARMS
         TGET ,(R3),EDIT
         TGET ,(R3),,WAIT
         TGET ,(R3),,,MF=I
* ALL (R3) + 1 PARM
         TGET ,(R3),EDIT,WAIT
         TGET ,(R3),=EDIT,,MF=I
* ALL (R3) + 2 PARMS
         TGET ,(R3),EDIT,WAIT,MF=I
* ALL (R3) + ALL PARMS BUT (R2)
         TGET ,,EDIT,WAIT
         TGET ,,EDIT,MF=I
         TGET ,,EDIT,WAIT,MF=I
* ALL REST OF EDIT COMBINATIONS
         TGET ,,,WAIT,MF=I
* ALL POSSIBLE COMBINATIONS OF OPERANDS?
         TGET (2)
         TGET ,(R3)
         TGET ,,EDIT
         TGET ,,,WAIT
         TGET ,,,,MF=I
*        ALL SINGLE PARMS
         TGET (2),(R3)
         TGET (2),,EDIT
         TGET (2),,,WAIT
         TGET (2),,,,MF=I
*        ALL (2) + 1 PARM
         TGET (2),(R3),EDIT
         TGET (2),(R3),,WAIT
         TGET (2),(R3),,,MF=I
* ALL (2) + 2 PARMS
         TGET (2),(R3),EDIT,WAIT
         TGET (2),(R3),EDIT,,MF=I
*        ALL (2) +3 PARMS
         TGET (2),(R3),EDIT,WAIT,MF=I
*  ALL PARMS
         TGET ,(R3),EDIT
         TGET ,(R3),,WAIT
         TGET ,(R3),,,MF=I
* ALL (R3) + 1 PARM
         TGET ,(R3),EDIT,WAIT
         TGET ,(R3),=EDIT,,MF=I
* ALL (R3) + 2 PARMS
         TGET ,(R3),EDIT,WAIT,MF=I
* ALL (R3) + ALL PARMS BUT (2)
         TGET ,,EDIT,WAIT
         TGET ,,EDIT,MF=I
         TGET ,,EDIT,WAIT,MF=I
* ALL REST OF EDIT COMBINATIONS
         TGET ,,,WAIT,MF=I
* ALL POSSIBLE COMBINATIONS OF OPERANDS?
         TGET 12(2)
         TGET ,(R3)
         TGET ,,EDIT
         TGET ,,,WAIT
         TGET ,,,,MF=I
*        ALL SINGLE PARMS
         TGET 12(2),(R3)
         TGET 12(2),,EDIT
         TGET 12(2),,,WAIT
         TGET 12(2),,,,MF=I
*        ALL 12(2) + 1 PARM
         TGET 12(2),(R3),EDIT
         TGET 12(2),(R3),,WAIT
         TGET 12(2),(R3),,,MF=I
* ALL 12(2) + 2 PARMS
         TGET 12(2),(R3),EDIT,WAIT
         TGET 12(2),(R3),EDIT,,MF=I
*        ALL 12(2) +3 PARMS
         TGET 12(2),(R3),EDIT,WAIT,MF=I
*  ALL PARMS
         TGET ,(R3),EDIT
         TGET ,(R3),,WAIT
         TGET ,(R3),,,MF=I
* ALL (R3) + 1 PARM
         TGET ,(R3),EDIT,WAIT
         TGET ,(R3),=EDIT,,MF=I
* ALL (R3) + 2 PARMS
         TGET ,(R3),EDIT,WAIT,MF=I
* ALL (R3) + ALL PARMS BUT 12(2)
         TGET ,,EDIT,WAIT
         TGET ,,EDIT,MF=I
         TGET ,,EDIT,WAIT,MF=I
* ALL REST OF EDIT COMBINATIONS
         TGET ,,,WAIT,MF=I
* ALL POSSIBLE COMBINATIONS OF OPERANDS?
         TGET BUFFER
         TGET ,(3)
         TGET ,,EDIT
         TGET ,,,WAIT
         TGET ,,,,MF=I
*        ALL SINGLE PARMS
         TGET BUFFER,(3)
         TGET BUFFER,,EDIT
         TGET BUFFER,,,WAIT
         TGET BUFFER,,,,MF=I
*        ALL BUFFER + 1 PARM
         TGET BUFFER,(3),EDIT
         TGET BUFFER,(3),,WAIT
         TGET BUFFER,(3),,,MF=I
* ALL BUFFER + 2 PARMS
         TGET BUFFER,(3),EDIT,WAIT
         TGET BUFFER,(3),EDIT,,MF=I
*        ALL BUFFER +3 PARMS
         TGET BUFFER,(3),EDIT,WAIT,MF=I
*  ALL PARMS
         TGET ,(3),EDIT
         TGET ,(3),,WAIT
         TGET ,(3),,,MF=I
* ALL (3) + 1 PARM
         TGET ,(3),EDIT,WAIT
         TGET ,(3),=EDIT,,MF=I
* ALL (3) + 2 PARMS
         TGET ,(3),EDIT,WAIT,MF=I
* ALL (3) + ALL PARMS BUT BUFFER
         TGET ,,EDIT,WAIT
         TGET ,,EDIT,MF=I
         TGET ,,EDIT,WAIT,MF=I
* ALL REST OF EDIT COMBINATIONS
         TGET ,,,WAIT,MF=I
* ALL POSSIBLE COMBINATIONS OF OPERANDS?
         TGET (R2)
         TGET ,(3)
         TGET ,,EDIT
         TGET ,,,WAIT
         TGET ,,,,MF=I
*        ALL SINGLE PARMS
         TGET (R2),(3)
         TGET (R2),,EDIT
         TGET (R2),,,WAIT
         TGET (R2),,,,MF=I
*        ALL (R2) + 1 PARM
         TGET (R2),(3),EDIT
         TGET (R2),(3),,WAIT
         TGET (R2),(3),,,MF=I
* ALL (R2) + 2 PARMS
         TGET (R2),(3),EDIT,WAIT
         TGET (R2),(3),EDIT,,MF=I
*        ALL (R2) +3 PARMS
         TGET (R2),(3),EDIT,WAIT,MF=I
*  ALL PARMS
         TGET ,(3),EDIT
         TGET ,(3),,WAIT
         TGET ,(3),,,MF=I
* ALL (3) + 1 PARM
         TGET ,(3),EDIT,WAIT
         TGET ,(3),=EDIT,,MF=I
* ALL (3) + 2 PARMS
         TGET ,(3),EDIT,WAIT,MF=I
* ALL (3) + ALL PARMS BUT (R2)
         TGET ,,EDIT,WAIT
         TGET ,,EDIT,MF=I
         TGET ,,EDIT,WAIT,MF=I
* ALL REST OF EDIT COMBINATIONS
         TGET ,,,WAIT,MF=I
* ALL POSSIBLE COMBINATIONS OF OPERANDS?
         TGET (2)
         TGET ,(3)
         TGET ,,EDIT
         TGET ,,,WAIT
         TGET ,,,,MF=I
*        ALL SINGLE PARMS
         TGET (2),(3)
         TGET (2),,EDIT
         TGET (2),,,WAIT
         TGET (2),,,,MF=I
*        ALL (2) + 1 PARM
         TGET (2),(3),EDIT
         TGET (2),(3),,WAIT
         TGET (2),(3),,,MF=I
* ALL (2) + 2 PARMS
         TGET (2),(3),EDIT,WAIT
         TGET (2),(3),EDIT,,MF=I
*        ALL (2) +3 PARMS
         TGET (2),(3),EDIT,WAIT,MF=I
*  ALL PARMS
         TGET ,(3),EDIT
         TGET ,(3),,WAIT
         TGET ,(3),,,MF=I
* ALL (3) + 1 PARM
         TGET ,(3),EDIT,WAIT
         TGET ,(3),=EDIT,,MF=I
* ALL (3) + 2 PARMS
         TGET ,(3),EDIT,WAIT,MF=I
* ALL (3) + ALL PARMS BUT (2)
         TGET ,,EDIT,WAIT
         TGET ,,EDIT,MF=I
         TGET ,,EDIT,WAIT,MF=I
* ALL REST OF EDIT COMBINATIONS
         TGET ,,,WAIT,MF=I
* ALL POSSIBLE COMBINATIONS OF OPERANDS?
         TGET 12(2)
         TGET ,(3)
         TGET ,,EDIT
         TGET ,,,WAIT
         TGET ,,,,MF=I
*        ALL SINGLE PARMS
         TGET 12(2),(3)
         TGET 12(2),,EDIT
         TGET 12(2),,,WAIT
         TGET 12(2),,,,MF=I
*        ALL 12(2) + 1 PARM
         TGET 12(2),(3),EDIT
         TGET 12(2),(3),,WAIT
         TGET 12(2),(3),,,MF=I
* ALL 12(2) + 2 PARMS
         TGET 12(2),(3),EDIT,WAIT
         TGET 12(2),(3),EDIT,,MF=I
*        ALL 12(2) +3 PARMS
         TGET 12(2),(3),EDIT,WAIT,MF=I
*  ALL PARMS
         TGET ,(3),EDIT
         TGET ,(3),,WAIT
         TGET ,(3),,,MF=I
* ALL (3) + 1 PARM
         TGET ,(3),EDIT,WAIT
         TGET ,(3),=EDIT,,MF=I
* ALL (3) + 2 PARMS
         TGET ,(3),EDIT,WAIT,MF=I
* ALL (3) + ALL PARMS BUT 12(2)
         TGET ,,EDIT,WAIT
         TGET ,,EDIT,MF=I
         TGET ,,EDIT,WAIT,MF=I
* ALL REST OF EDIT COMBINATIONS
         TGET ,,,WAIT,MF=I
* ALL POSSIBLE COMBINATIONS OF OPERANDS?
* SEPARATOR
         TGET BUFFER
         TGET ,SIZE
         TGET ,,EDIT
         TGET ,,,WAIT
         TGET ,,,,MF=(E,(1))
*        ALL SINGLE PARMS
         TGET BUFFER,SIZE
         TGET BUFFER,,EDIT
         TGET BUFFER,,,WAIT
         TGET BUFFER,,,,MF=(E,(1))
*        ALL BUFFER + 1 PARM
         TGET BUFFER,SIZE,EDIT
         TGET BUFFER,SIZE,,WAIT
         TGET BUFFER,SIZE,,,MF=(E,(1))
* ALL BUFFER + 2 PARMS
         TGET BUFFER,SIZE,EDIT,WAIT
         TGET BUFFER,SIZE,EDIT,,MF=(E,(1))
*        ALL BUFFER +3 PARMS