         PRINT OFF
         MACRO
&NAME    BNGHJN &LABEL,&HJN
         LCLC  &HJA,&HJB
&HJA     SETC  '&SYSPARM'(1,4)
&HJB     SETC  '&SYSPARM'(5,4)
         AIF   ('&LABEL' EQ '').NOBRNCH
         B     &LABEL .                 BR AROUND CONSTANTS
         SPACE 2
.NOBRNCH ANOP
         AIF   ('&NAME' EQ '').NOLABEL
         DC    C'&NAME' .              MODULE IDENTIFIER
.NOLABEL ANOP
         DC    X'&HJA' .                DATE OF MODIFICATION
         AIF   ('&HJN' NE 'HJN').DATE
         DC    X'&HJB' .                HJN OF MODIFICATION
.DATE    ANOP
         AIF   ('&LABEL' EQ '').NOLBL
         SPACE 2
&LABEL   DS    0H
.NOLBL   ANOP
         MEND
         PRINT ON
***********************************************************************
*                                                                     *
* MODULE NAME = BNGI3270                                              *
*                                                                     *
* DESCRIPTIVE NAME =  IMS DEMF 3270 DISPLAY MODULE                    *
*                                                                     *
* COPYRIGHT = NONE                                                    *
*                                                                     *
* STATUS = RELEASE 1, LEVEL 1                                         *
*                                                                     *
* FUNCTION = 1) BNGI3270 IS LINKED TO BY BNGIDISP;                    *
*            2) HANDLES 3270 DISPLAY TERMINAL ERROR INFORMATION       *
*               REQUEST AND BITS PROMPTER REQUEST;                    *
*            2) LINKS TO BNGIREAD TO READ SYS1.DEMFLOG DATA FILE AND  *
*               COLLECTS THE REQUESTED 3270 ERROR INFORMATION FROM    *
*               IT;                                                   *
*            3) FORMS OUTPUT MESSAGE AND WRITES IT TO THE 3270 DISPLAY*
*               TERMINAL; (ERR INFO AND SOME OF DISPLAY MESSAGES)     *
*            4) RETURNS CONTROL TO BNGIDISP.                          *
*                                                                     *
* NOTES = NONE                                                        *
*                                                                     *
*    DEPENDENCIES = NONE                                              *
*                                                                     *
*    RESTRICTIONS = NONE                                              *
*                                                                     *
*    REGISTER CONVENTIONS :                                           *
*    --------------------                                             *
*                                                                     *
*    ALL DEMF RECORDING DISPLAY COMPONENTS USE STANDARD REGISTER      *
*    CONVENTIONS WITH THE EXCEPTION OF THE IMS DISPLAY COMPONENTS.    *
*    CERTAIN IMS MODULES USE ADDITIONAL REGISTERS AND THE LINK MACRO  *
*    FOR PASSING OR RETRIEVING DATA PARAMETER INFORMATION AND ARE     *
*    DETAILED BELOW:                                                  *
*                                                                     *
*     MODULE    REGISTER    CONTENTS.                                 *
*    --------   --------    ------------------------------------      *
*    BNGIDISP     R5        PASSES ADDRESS OF IMS PROGRAM             *
*                           COMMUNICATION BLOCK (PCB) TO              *
*                           BNGI3270, BNGIMENU, BNGILOCL, AND         *
*                           BNGIRMOT.                                 *
*                                                                     *
*                 R11       PASSES TO BNGIREAD THE ADDRESS OF A       *
*                           PARAMETER LIST CONTAINING:                *
*                                                                     *
*                          1) 4-BYTES - ADDRESS OF I/O AREA FROM      *
*                                       BNGIREAD                      *
*                                                                     *
*                          2) 3-BYTES - RELATIVE BLOCK ADDRESS TO     *
*                                       BE READ BY BNGIREAD           *
*                                                                     *
*                          3) 2-BYTES - STATUS OF READ FROM           *
*                                       BNGIREAD                      *
*                                                                     *
*                 R12      FOR BNGI3270, PASSES THE ADDRESS OF A      *
*                          COMMUNICATION AREA CONTAINING              *
*                          UP TO SIX EDITTED PARM FIELDS, SAVE        *
*                          AND WORK AREAS, AND THE INPUT MESSAGE.     *
*                                                                     *
*                          FOR BNGILOCL, BNGIRMOT, AND BNGIMENU;      *
*                          PASSES THE ADDRESS OF THE INPUT MESSAGE.   *
*                                                                     *
*    BNGIREAD    LINK TO BNGIDCBA       RETRIEVES THE ADDRESS OF THE  *
*                (ALIAS FOR BNGISIMS)   ADDRESS OF THE SYS1.DEMFLOG   *
*                                       DCB.                          *
*                                                                     *
*                 R11      RECEIVES ADDRESS OF PARAMETER LIST         *
*                          (SEE BNGIDISP R11 FOR LIST).               *
*                                                                     *
*    BNGI3270     R5      RECEIVES ADDRESS OF IMS PCB FROM BNGIDISP   *
*                                                                     *
*                 R11     PASSES TO BNGIREAD THE ADDRESS OF A         *
*                         PARAMETER LIST (SEE BNGIDISP R11 FOR LIST)  *
*                                                                     *
*                 R12     RECEIVES FROM BNGIDISP THE ADDRESS OF THE   *
*                         COMMUNICATION AREA (SEE BNGIDISP R12 FOR    *
*                         CONTENTS OF AREA).                          *
*                                                                     *
*    BNGIMENU     R5      RECEIVES ADDRESS OF IMS PCB FROM BNGIDISP   *
*                                                                     *
*                 R12     RECEIVES ADDRESS OF INPUT MESSAGE FROM      *
*                         BNGIDISP.                                   *
*                                                                     *
*    BNGILOCL     R5      RECEIVES ADDRESS OF IMS PCB FROM BNGIDISP   *
*                                                                     *
*                 R12     RECEIVES ADDRESS OF INPUT MESSAGE FROM      *
*                         BNGIDISP.                                   *
*                                                                     *
*    BNGIRMOT     R5      RECEIVES ADDRESS OF IMS PCB FROM BNGIDISP   *
*                                                                     *
*                 R12     RECEIVES ADDRESS OF INPUT MESSAGE FROM      *
*                         BNGIDISP.                                   *
*                                                                     *
*    PATCH LABEL = NONE                                               *
*                                                                     *
* MODULE TYPE = IMS DISPLAY                                           *
*                                                                     *
*    PROCESSOR = ASSEMBLER H                                          *
*                                                                     *
*    MODULE SIZE = 9928 DECIMAL BYTES                                 *
*                                                                     *
*    ATTRIBUTES = SERIALLY REUSABLE                                   *
*                                                                     *
* ENTRY POINT = BNGI3270                                              *
*                                                                     *
*    PURPOSE = SEE FUNCTION                                           *
*                                                                     *
*    LINKAGE = R1  LOADED WITH THE PARAM LIST POINTER                 *
*              R14 LOADED WITH THE RETURN ADDR (USED BY SUBROUTINE)   *
*              R15 LOADED WITH ENTRY POINT                            *
*                                                                     *
* INPUT = PARAM LIST ITEMS USED ARE : COMMAREA (LABEL)                *
*                                                                     *
* OUTPUT = PARAM LIST ITEMS USED ARE : MSG3270 & MSGBITS (LABELS)     *
*                                                                     *
* EXIT-NORMAL = REGISTER 15 RETURN CODE RETURNED TO CALLER :          *
*               00 - OPERATION PERFORMED AS REQUESTED                 *
*                                                                     *
* EXIT-ERROR  = NONE                                                  *
*                                                                     *
* EXTERNAL REFERENCE = NONE                                           *
*                                                                     *
*    ROUTINES = LOCATE ROUTINE                                        *
*               GETTIOA ROUTINE (GET TERMINAL OUTPUT AREA)            *
*               BUOBR ROUTINE (BLOW-UP OBR ROUTINE)                   *
*               BUMDR ROUTINE (BLOW-UP MDR ROUTINE)                   *
*                                                                     *
*    DATA AREAS = NONE                                                *
*                                                                     *
*    CONTROL BLOCK = NONE                                             *
*                                                                     *
* TABLES = CALENDAR - CONVERT JULIAN DATE TO GREGORIAN DATE TABLE     *
*          LEAPTBL  - LEAP YEAR CALCULATION TABLE                     *
*          CCWTABL  - CONVERT 270X COMMAND CODE INTO ENGLISH          *
*          CSWTABL  - CONVERT LOCAL 327X STATUS OR 270X LINE STATUS   *
*                     INTO ENGLISH                                    *
*          SENSTABL - CONVERT 270X LINE SENSE CODE INTO ENGLISH       *
*          STATSTBL - CONVERT REMOTE 327X STATUS CODE INTO ENGLISH    *
*          SENS3272 - CONVERT LOCAL 327X SENSE CODE INTO ENGLISH      *
*          CCW3272  - CONVERT LOCAL 327X COMMAND CODE INTO ENGLISH    *
*          TPOPTBL  - CONVERT BTAM TP OP CODE INTO ENGLISH            *
*          IMSPTOP  - CONVERT TCAM TP OP CODE INTO ENGLISH            *
*          HXTOEB   - HEX CHARS TO EBCDIC CHARS TABLE                 *
*          EBTOHX   - EBCDIC CHARS TO HEX CHARS TABLE                 *
*                                                                     *
* MACROS = LINK, SAVE, RETURN, OPEN, READ, CHECK, CLOSE               *
*                                                                     *
***********************CHANGE ACTIVITY FOLLOWS:************************
* CHANGE 01  11/15/77  PROLOGUE ADDED                                 *
* CHANGE 02  03/23/78  BNGHJN MACRO ADDED                             *
*A109600,142000,353200,387200                                  @OZ31886
*D113600                                                       @OZ31886
*                                                                     *
***********************************************************************
***********************************************************************
BNGI3270 TITLE 'DISPLAY 3270 MDR AND OBR ENTRIES'
***********************************************************************
         SPACE
PCB      DSECT                 MAP OF IMS PROGRAM COMMUNICATION BLOCK
         USING *,PCBREG          ADDRESS PASSED IN REGISTER 5 BY DISP
PCBTERMN DS    CL8                 REQUESTING TERMINAL SYMBOLIC NAME
         DS    CL2                 RESERVED
PCBSTAT  DS    CL2                 DL/I STATUS CODE
PCBDATE  DS    PL4                 TRANSACTION DATE STAMP 00YYDDDF
PCBTIME  DS    PL4                 TRANSACTION TIME STAMP HHMMSSTH
PCBSEQ   DS    F                   TRANSACTION SEQUENCE NUMBER
PCBMODNM DS    CL8                 MFS MESSAGE OUTPUT DESCRIPTOR NAME
***********************************************************************
COMMAREA DSECT       MAP OF COMMUNICATION AREA PASSED TO THIS PGM
         USING *,COMMREG      IN REGISTER 12 BY DISP
PARM1    DS    D                   1ST INPUT PARM - DEMF
PARM2    DS    D                   2ND INPUT PARM - 3270
PARM3    DS    D                   3RD INPUT PARM - LLL OR TTT
PARM4    DS    D                   4TH INPUT PARM - CC
PARM5    DS    D                   5TH INPUT PARM - TT
PARM6    DS    D                   6TH INPUT PARM - TT
FLDCNT   DS    PL1                 COUNT OF FLD'S KEYED-IN IN INPUT
SVRELREC DS    CL3           SAVE AREA FOR LINE/CTRL RELATIVE BLOCK NO.
SAVEBBSS DS    F                   SAVE POINTER TO BLK AND SLOT
DBLWD    DS    D                   DOUBLEWORD WORK AREA
DUBLWD   EQU   DBLWD
FULLWD   DS    F                   FULLWORD WORK AREA
TWATCTID DS    D             SAVE AREA FOR IMS SYMBOLIC LINE POINTER
* THE FOLLOWING AREAS ARE USED AS INPUT AREA FOR
* TRANSACTION MESSAGES, WITH MAPPING AS SHOWN.
         SPACE
MSGIN    DS    0D              MAP OF TRANSACTION MESSAGE SEGMENT:
TIOATDL  DS    H                   MESSAGE LENGTH INCL. LL,Z1,Z2,DATA
MSGZ1    DS    X                   FLAG FIELD - USED BY IMS INTERNALLY
MSGZ2    DS    X                   FLAG FIELD - NON-ZERO IF MFS EDITED
TIOADBA  DS    0F                  START OF MESSAGE DATA
MSGTXCD  DS    CL5
MSGKEYED DS    CL29
MSGCMDCD DS    CL4
MSGPGF   DS    C
MSGID    DS    CL20
MSGPGB   DS    C
MSGBBBSS DS    CL15
MSGNTRY  DS    CL9
MSGEND   DS    39CL9
********************************************************************
         SPACE
DATASLOT DSECT                 MAP OF MDR AND OBR ENTRIES IN DETL BLK
         USING *,DATAREG
DATALTH  DS    C                   LTH OF THIS SLOT
LINEID   DS    CL6                 LINE AND LIB ADDR
ENTRYTYP DS    C                   ENTRY TYPE - MDR OR OBR
         DS    CL3
MDRTYPE  DS    C                   TYPE HDWE - 03 EQUALS 3270
         DS    CL3
DATE     DS    CL4                 DATE OF ERROR - 00YYDDDF
TIME     DS    CL4                 TIME OF ERROR - HHMMSSHH
         DS    CL8
MDRCUA   DS    CL2                 MDR CHAN & UNIT ADDR
MDRCTRL  DS    C                   MDR CTRL UNIT POLL ADDR
MDRTERM  DS    C                   MDR TERMIL POLL ADDR
MDRSTATS DS    CL2                 REMOTE 3270 STATUS
         DS    CL2
OBRCCW   DS    CL8                 LAST CCW EXECUTED
OBRCSW   DS    CL8                 CHANNEL STATUS WORD
         DS    CL6
OBRUCB   DS    C
         DS    CL3
OBRCUA   DS    CL2                 OBR CHAN & UNIT ADDR
OBRCTRL  DS    C                   REMOTE LINE ERRORS UNDER CTRLUNIT
OBRTERM  DS    C                   REMOTE LINE ERRORS UNDER TERMINAL
         DS    CL12
OBRSENSE DS    CL2                 OBR SENSE BYTES
         SPACE
         ORG   DATALTH         MAP OF 16-BYTE SLOT IN CONTROL BLOCK
CTRLPORT DS    CL6                 PORT & LIB ADDRESS
         DS    CL4                 BLOCKS AND HITS
CTRLFRST DS    CL3                 REL BLK ADDR 1ST BLK IN CHAIN.
         DS    CL3                 REL BLK ADDR LAST BLK IN CHAIN
SLOTLTH  EQU   *-CTRLPORT
FIOADBA  DSECT                 MAP OF 32-BYTE HEADER IN CONTROL BLOCK
         USING *,FIOABAR
CTRLLAST DS    F                   LAST USED ADDR IN DATASET
CTRLTOTL DS    F                   TOTAL BLOCKS IN DATASET
CTRLBACK DS    F                &  BACKWARD PTR IN CTRL BLK CHAIN
CTRLFWD  DS    F                   FORWARD PTR IN CTRL BLK CHAIN
CTRLENTS DS    C                   NBR ENTRIES IN THIS CTRL BLK
         DS    CL15                FOR FUTURE USE
CTRLSLT1 DS    0C                  START OF CTRL SLOT NBR ONE.
         SPACE
         ORG   FIOADBA         MAP OF 32-BYTE HEADER IN DETAIL BLOCK
DATAPORT DS    CL6                 PORT & LIB ADDR
DATATIME DS    CL4                 TIME BLOCK CREATED
DATADATE DS    CL4                 DATE BLOCK CREATED
DATAFWD  DS    CL3                 FORWARD CHAIN ADDR
DATABACK DS    CL3                 BACKWAD CHAIN ADDR
BLKLTH   DS    CL2                 NBR BYTES USED IN THIS BLOCK
         DS    CL10
DATASLT1 DS    0C                  START OF 1ST DATA SLOT
***********************************************************************
BNGI3270 CSECT
***********************************************************************
R1       EQU   1
BASE1    EQU   2                   1ST PROGRAM BASE REG.
BASE2    EQU   3                   2ND PROGRAM BASE REG.
BASE3    EQU   4                   3RD PROGRAM BASE REG.
PCBREG   EQU   5                PTR TO TP-PCB PASSED HERE
FIOABAR  EQU   6                   FIOA POINTER.
DATAREG  EQU   7                   POINTER TO DATA IN EMF FILE BLOCK.
DATALOOP EQU   8                   LOOP REG FOR PROCESSING WITH DATAREG
OUTREG   EQU   9                   POINTER TO VARIABLE AREA IN TIOA.
OUTLOOP  EQU   10                  LOOP REG FOR PROCESSING WITH OUTREG.
LINKREG  EQU   11                  LINKAGE TO COMMON SUBROUTINES.
COMMREG  EQU   12               PTR TO COMMUNICATIONS AREA PASSED HERE
R13      EQU   13
***********************************************************************
* THIS SECTION DOES PROGRAM INITIALIZATION
***********************************************************************
         SAVE  (14,12)             SAVE CALLER'S REGISTERS
         BALR  BASE1,0
         USING *,BASE1,BASE2,BASE3
BNGI3270 BNGHJN SKIPID                                         @OZ31886
         LA    BASE2,2048(BASE1)    SET SECOND BASE
         LA    BASE2,2048(BASE2)       FROM THE FIRST
         LA    BASE3,2048(BASE2)    SET THIRD BASE
         LA    BASE3,2048(BASE3)       FROM THE SECOND
         LA    14,SAVE             POINT TO OUR SAVE AREA
         ST    14,8(13)            FORWARD CHAIN FROM OLD
         ST    13,4(14)            BACKWARD CHAIN TO OLD
         LR    13,14               FIRST BASE AND S/A FOR OUR REGS
         B     A001
SAVE     DS    18F                 SAVE AREA
*******
***********************************************************************
* THIS SECTION  RETURNS TO BNGIDISP  *
         EJECT
***********************************************************************
* THIS IS A COMMON READ SUBROUTINE FOR THIS PROGRAM.
***********************************************************************
READ     ST    11,SAVE11
         LA    11,PARMADDR         SET UP PARM REG
         L     15,=V(BNGIREAD)    POINT TO READ MODULE
         BALR  14,15              LINK TO BDAM READ MODULE
         L     11,SAVE11
         OC    STATUS,STATUS      READ OK?
         BZ    0(LINKREG)         YES. RETURN TO CALLER
         CLC   STATUS,=C'FF'       WAS EMFILE OPENED?
         BE    Z60                 NO.  WRITE 'NOT OPEN' MSG
         UNPK  DBLWD,STATUS(3)
         MVC   IOERCODE,DBLWD+3
         TR    IOERCODE,HXTOEB     MOVE BDAM RETURN CODE TO I/O ERR MSG
         UNPK  DBLWD,RELREC(4)
         MVC   IOERBLK,DBLWD+4     MOVE BLK NBR THAT WAS BEING READ
         TR    IOERBLK,HXTOEB
         B     Z20                     IF REQUESTED SLOT CAN'T
*                                        BE FOUND, SEND 'SEARCHING ERR'
SAVE11   DS    F
***********************************************************************
***********************************************************************
A001     CP    FLDCNT,=P'0'        WAS DATA KEYED-IN?
         BE    J010                NO. GO EXAMINE INPUT FURTHER.
A010     XC    RELREC,RELREC       YES. THIS IS A NEW RECAP REQUEST.
         OC    PARM3,PARM3         WAS LINE ID INPUT?
         BZ    Z40                 NO. SEND 'INVALID INPUT' MSG.
B140     MVC   DUBLWD+5(3),PARM3
         TR    DUBLWD,EBTOHX            GET LINE,
         PACK  DUBLWD(3),DUBLWD+5(4)    CONTROL UNIT,
         MVC   HEXLINE,DUBLWD           AND
         MVC   DUBLWD+5(3),PARM4        TERMINAL
         TR    DUBLWD,EBTOHX            ADDRESS
         PACK  DUBLWD(2),DUBLWD+5(3)    INTO HEX
         MVC   HEXCTRL,DUBLWD           FORMAT
         MVC   DUBLWD+5(3),PARM5        FOR COMPARING
         TR    DUBLWD,EBTOHX            TO DATA IN
         PACK  DUBLWD(2),DUBLWD+5(3)    DISK FILE.
         MVC   HEXTERM,DUBLWD
         MVC   LGBBBSS,=C'BBBSSBBBSSBBBSS'   INITIALIZE PAGING BBBSS'S
         MVC   SMBBBSS,=C'BBBSSBBBSSBBBSS'   INITIALIZE PAGING BBBSS'S
         BAL   LINKREG,GETTIOA     SETUP NEW OUTPUT AREA WITH HDRS.
D080     BAL   LINKREG,READ
D190     L     FIOABAR,IOAREA      POINT TO FILE I/O AREA.
         SR    DATALOOP,DATALOOP   SETUP TO LOOP ON NBR OF
         IC    DATALOOP,CTRLENTS   ENTRIES IN THIS CNTRL BLK.
         LTR   DATALOOP,DATALOOP   VERIFY THAT THE DATA SET
         BZ    Z50                 IS NOT EMPTY. IF SO, WRT NO ERRS MSG
E030     LA    DATAREG,CTRLSLT1    POINT TO FIRST CTRL SLOT.
E040     OC    PARM4,PARM4         WAS A CTRL UNIT ADDR INPUT?
         BNZ   E110                YES. LINE ID IS CORRECT.
         XC    DUBLWD,DUBLWD       NO. THIS MUST BE RQST FOR LOCAL.
         MVC   DUBLWD(3),HXLINLIB  ROUND CUA ADDR DOWN
         NI    DUBLWD+2,B'11100000'     TO EVEN CHAN ADDR.
         CLC   DUBLWD(6),CTRLPORT       LOOK FOR EQUAL LINE ADDRESS.
         B     E120             &
E110     CLC   HXLINLIB,CTRLPORT   IS THIS SLOT = RQSTD LINE ADDR?
E120     BE    E200                YES. GO READ ITS DATA BLOCK.
         LA    DATAREG,SLOTLTH(DATAREG)  NO. BUMP TO NEXT CTRL SLOT.
         BCT   DATALOOP,E040            MORE SLOTS TO LOOK AT?
         OC    CTRLBACK,CTRLBACK        NO. IS THERE ANOTHER CTRL BLK?
         BZ    Z50                           NO. SEND 'NO ERRS' MSG.
         MVC   RELREC,CTRLBACK+1        YES. SAVE NEXT BLOCK ADDR.
         B     D080
E200     MVC   RELREC,CTRLFRST     MOVE DATA BLOCK ADDR.
         OC    RELREC,RELREC       IS THERE ANY DATA BLOCKS ?  @OZ31886
         BZ    T190                NO, WRITE 'NO DATA BLKS MSG'@OZ31886
F020     DS    0H
         BAL   LINKREG,READ
F050     L     FIOABAR,IOAREA      POINT TO DATA BLOCK.
         XC    TWASLOT,TWASLOT     INITIALIZE SLOT COUNT TO 1.
         LH    DATALOOP,BLKLTH     SETUP TO LOOP ON NBR BYTES IN REC.
         LA    DATAREG,DATASLT1    POINT TO FIRST DATA ITEM.
F080     SR    14,14
         IC    14,TWASLOT          PUT SLOT COUNT IN REG 14
         LA    14,1(14)            ADD 1 TO SLOT COUNT
         STC   14,TWASLOT          STORE BACK
F090     CLI   ENTRYTYP,X'91'      IS THIS ENTRY AN MDR RECORD?
         BNE   H060                NO. TEST FURTHER.
         CLI   MDRTYPE,X'03'       YES. IS IT A 3270?
         BE    G060                YES. TEST FURTHER.
F120     SR    1,1                 NO. BUMP
         IC    1,0(DATAREG)        TO NEXT DATA ITEM.
         LTR   1,1                 PREVENT ENDLESS LOOP
         BZ    F240                IN CASE GARBAGE IN RECORD.
         AR    DATAREG,1
         SR    DATALOOP,1          ALL DONE WITH THIS BLOCK?
         LTR   DATALOOP,DATALOOP
         BP    F080                NO. PROCESS NEXT ITEM.
         OC    DATAFWD,DATAFWD     YES. IS THERE ANOTHER BLOCK?
         BZ    F240                NO. GO WIND UP OUTPUT.
         MVC   RELREC,DATAFWD      YES. GET CHAIN ADDR AND
         B     F020                GO READ NEXT BLOCK.
***********************************************************************
*    PREPARE TO WRITE SCREEN AND RETURN                   *************
***********************************************************************
F240     CLI   OUTSWCH,X'FF'       WAS ANY OUTPUT CREATED?
         BNE   Z50                 NO. SEND 'NO ERRS' MSG.
G020     CALL  ASMTDLI,(ISRT,(PCBREG),MSG3270,S3270),VL
CHECKST  CLC   PCBSTAT,DLIOK       DID ISRT GO OK?
         BNE   ABEND1              IF NOT, ABEND, ELSE RETURN TO CALLER
         L     R13,4(R13)          RESTORE INCOMING SAVE AREA ADDRESS
         RETURN (14,12)            RELINQUISH CONTROL
ABEND1   ABEND 666,DUMP
***********************************************************************
G060     CLC   MDRCTRL,HEXCTRL     IS THIS MDR FOR RQSTED CTRL UNIT?
         BNE   F120                NO. SKIP IT.
         CLC   MDRTERM,HEXTERM     YES. IS IT FOR REQUESTED TERML?
         BNE   F120                NO. SKIP IT.
         MVC   0(MDRLTH,OUTREG),MDRHDR   YES. SETUP BUILD 1 MDR LINE.
         UNPK  DUBLWD,MDRSTATS(3)
         TR    DUBLWD,HXTOEB       FILL IN REMOTE STATUS BYTES.
         MVC   (MDRSTAT-MDRHDR)(4,OUTREG),DUBLWD+3
G100     UNPK  DUBLWD,RELREC(4)
         TR    DUBLWD,HXTOEB       FILL IN THIS BLK NBR.
         MVC   (MDRBBBSS-MDRHDR)(3,OUTREG),DUBLWD+4
         UNPK  DUBLWD,TWASLOT(2)
         TR    DUBLWD,HXTOEB       FILL IN THIS SLOT NBR.
         MVC   (MDRBBBSS+3-MDRHDR)(2,OUTREG),DUBLWD+5
         LA    14,LGBBBSS       POINT TO OUTPUT PAGING BBBSS FIELDS.
         CLC   0(5,14),=C'BBBSS' IS 'FIRST' FILLED IN?
         BNE   G200             YES. SKIP IT.
         MVC   0(5,14),(MDRBBBSS-MDRHDR)(OUTREG) NO. DO IT.
         CLC   10(5,14),=C'BBBSS' HOW ABOUT 'PREV'?
         BNE   G200             ALREADY THERE; SKIP IT.
         MVC   10(5,14),0(14)  NO. USE 'FIRST'
G200     MVC   5(5,14),(MDRBBBSS-MDRHDR)(OUTREG)  FILL IN 'LAST' BBBSS
         CLI   QUITSW,X'FF'       IS 3277-1 SCREEN FULL?
         BE    G220               YES.
         MVC   SMBBBSS,LGBBBSS    NO. SO DO SAME FOR 3277-1 PAGE BBBSS
G220     UNPK  DUBLWD,TIME
         MVC   (MDRHRS-MDRHDR)(2,OUTREG),DUBLWD+1   FILL IN HOURS
         MVC   (MDRMINS-MDRHDR)(2,OUTREG),DUBLWD+3     AND MINUTES.
G230     MVI   OUTSWCH,X'FF'       INDICATE SOME OUTPUT WAS CREATED.
         CP    DATE,PCBDATE        DID THIS ERROR HAPPEN TODAY?
         BE    G240                YES,BR HIGH INTENSITY
         MVC   DATDATE,PCBDATE     MOVE PCB DATE TO WORK AREA
         SP    DATDATE,=P'1'       MAKE DATE YESTERDAY
         CP    DATE,DATDATE        DID IT HAPPEN YESTERDAY
         BNE   G230A               NO,BR LEAVE INTENSITY NORMAL
         CLC   TIME,PCBTIME        IS IT OLDER THAN 24 HRS?
         BNL   G240                NO,BR MAKE IT HIGH INTENSITY
G230A    LA    R1,LEAPTBL
G231     CLC   DATE+1(1),0(1)      SEE IF
         BE    G232                ERROR HAPPENED
         LA    R1,1(R1)            IN LEAP YEAR
         CLI   0(R1),X'FF'         IS IT END OF TABLE
         BNE   G231                NO,BR TRY NEXT YEAR
         ZAP   CALENDAR+8(2),=P'28' NOT LEAP YEAR
         B     G233                CONTINUE
G232     ZAP   CALENDAR+8(2),=P'29' YES,LEAP YEAR
G233     LA    15,CALENDAR
G234     MVN   DATE+3(1),=X'0C'    MAKE SURE SIGN IS CORRECT
         CLC   DATE+2(2),3(15)    COMPUTE MONTH
         BNH   G235                AND DAY FROM
         SP    DATE+2(2),3(2,15)  DAY NUMBER
         LA    15,5(15)
         B     G234
G235     MVC   (MDRHRS-MDRHDR)(3,OUTREG),0(15)  MOVE MONTH AND
         UNPK  (MDRMINS-MDRHDR)(2,OUTREG),DATE+2(2)   DAY TO OUTPUT
         OI    (MDRMINS+1-MDRHDR)(OUTREG),X'F0'
         B     H030
G240     MVC   0(2,OUTREG),PHN     YES. MAKE IT HIGH INTENSITY.
         MVC   3(2,OUTREG),UHA       YES. MAKE IT HIGH INTENSITY.
         MVC   14(2,OUTREG),PHN        YES. MAKE IT HIGH INTENSITY.
H030     LA    OUTREG,MDRLTH(OUTREG)    BUMP TO NEXT OUTPUT SLOT.
         BCT   OUTLOOP,F120        MORE TIOA ROOM LEFT?
         CLI   QUITSW,X'FF'        OUTPUT AREA FILLED FOR 3277-2?
         BE    G020                YES. GO WIND UP OUTPUT
         MVI   QUITSW,X'FF'        NO. TURN ON OUTPUTING-FOR-3277-2 SW.
         LA    OUTLOOP,33          SET UP OUTPUT COUNTER
         LA    14,SMBBBSS          FILL IN 'LAST' BLK & SLOT ADDR
         UNPK  DUBLWD,RELREC(4)       FOR 3277-1
         TR    DUBLWD,HXTOEB
         MVC   5(3,14),DUBLWD+4
         UNPK  DUBLWD,TWASLOT(2)
         TR    DUBLWD,HXTOEB
         MVC   8(2,14),DUBLWD+5
         B     F120                GO PROCESS MORE SLOTS.
***********************************************************************
H060     CLI   ENTRYTYP,X'91'      IS THIS ENTRY AN OBR?
         BE    F120                NO. SKIP IT.
         CLI   OBRUCB,X'40'        IS THIS A REMOTE OBR ?
         BNE   H080                NO. BYPASS CHECKING POLL CHARS
         CLC   OBRCTRL,HEXCTRL     IS IT THE REQUESTED CTRL UNIT ?
         BNE   F120                NO. SKIP IT.
         CLC   OBRTERM,HEXTERM     IS IT THE REQUESTED TERMINAL ?
         BNE   F120                NO. SKIP IT.
H080     CLC   OBRCUA,HEXLINE      YES. IS IT THE REQUESTED CUA ADDR?
         BNE   F120                NO. SKIP IT.
         MVC   0(MDRLTH,OUTREG),MDRHDR  YES. SETUP COMMON MDR/OBR HDR.
         UNPK  DUBLWD,OBRCSW+4(3)
         TR    DUBLWD,HXTOEB       FILL IN CSW BYTES
         MVC   (OBRSNS-MDRHDR)(4,OUTREG),DUBLWD+3
         UNPK  DUBLWD,OBRSENSE(3)
         TR    DUBLWD,HXTOEB       FILL IN SENSE BYTES.
         MVC   (MDRSTAT-MDRHDR)(4,OUTREG),DUBLWD+3
         NI    OBRCCW+5,X'3F'      CLEAN UP TP OP CODE.
         UNPK  DUBLWD,OBRCCW+5(2)
         TR    DUBLWD,HXTOEB       FILL IN TP OP CODE.
         MVC   (OBRTPOP+1-MDRHDR)(2,OUTREG),DUBLWD+5
         MVI   (OBRTPOP-1-MDRHDR)(OUTREG),C'B'
         CLI   ENTRYTYP,X'34'      IS THIS A TCAM OBR?
         BNE   J005                NO. LEAVE 'B' IN FOR BTAM
         MVI   (OBRTPOP-1-MDRHDR)(OUTREG),C'T'    T=TCAM
J005     UNPK  DUBLWD,OBRCCW(2)
         TR    DUBLWD,HXTOEB       FILL IN CHANL COMMAND.
         MVC   (OBRCMD-MDRHDR)(2,OUTREG),DUBLWD+5
         B     G100                GO FILL IN DATA COMMON TO MDR/OBR.