         PRINT OFF
         MACRO
&NAME    BNGHJN &LABEL,&HJN
         LCLC  &HJA,&HJB
&HJA     SETC  '&SYSPARM'(1,4)
&HJB     SETC  '&SYSPARM'(5,4)
         AIF   ('&LABEL' EQ '').NOBRNCH
         B     &LABEL .                 BR AROUND CONSTANTS
         SPACE 2
.NOBRNCH ANOP
         AIF   ('&NAME' EQ '').NOLABEL
         DC    C'&NAME' .              MODULE IDENTIFIER
.NOLABEL ANOP
         DC    X'&HJA' .                DATE OF MODIFICATION
         AIF   ('&HJN' NE 'HJN').DATE
         DC    X'&HJB' .                HJN OF MODIFICATION
.DATE    ANOP
         AIF   ('&LABEL' EQ '').NOLBL
         SPACE 2
&LABEL   DS    0H
.NOLBL   ANOP
         MEND
         PRINT ON
***********************************************************************
*                                                                     *
* MODULE NAME = BNGIDISP                                              *
*                                                                     *
* DESCRIPTIVE NAME =  IMS DEMF DISPLAY CONTROL MODULE                 *
*                                                                     *
* COPYRIGHT = NONE                                                    *
*                                                                     *
* STATUS = RELEASE 1, LEVEL 1                                         *
*                                                                     *
* FUNCTION = 1) READS INPUT MESSAGE FROM IMS MESSAGE QUEUE;           *
*            2) EDITS THE INPUT INTO 6 PARM FIELDS WITH LEFT JUSTIFY; *
*            3) DOES SYNTAX CHECK ON DEMF COMMANDS AND PARAMETERS;    *
*            4) DETERMINES WHETHER THE REQUEST IS FOR MENU,REMOTE,    *
*               LOCAL OR 3270 SCREEN ERROR DISPLAY AND LINKS          *
*               TO BNGTMENU,BNGTRMOT,BNGTLOCL OR BNGT3270 SEGMENT     *
*               ACCORDINGLY WITH PARAMETERS;                          *
*            5) HANDLES ALL,LINE AND CTRL ERROR DISPLAY REQUEST AND   *
*               WRITES ITS ERROR INFORMATION TO THE 3270 DISPLAY      *
*               TERMINAL AND ISSUES SOME OF THE DISPLAY MESSAGES;     *
*            6) LINKS TO BNGIREAD TO READ SYS1.DEMFLOG FOR ALL,LINE,  *
*               CTRL ERROR DISPLAY REQUESTS;                          *
*            7) WHEN THE INPUT MESSAGE HAS BEEN PROCESSED, BNGIDISP   *
*               READS ANOTHER MESSAGE. THIS PROCESS CONTINUES UNTIL   *
*               THE MESSAGE QUEUE IS EXHAUSTED. THEN BNGIDISP RETURNS *
*               CONTROL TO IMS.                                       *
*                                                                     *
* NOTES = NONE                                                        *
*                                                                     *
*    DEPENDENCIES = NONE                                              *
*                                                                     *
*    RESTRICTIONS = NONE                                              *
*                                                                     *
*    REGISTER CONVENTIONS :                                           *
*    --------------------                                             *
*                                                                     *
*    ALL DEMF RECORDING DISPLAY COMPONENTS USE STANDARD REGISTER      *
*    CONVENTIONS WITH THE EXCEPTION OF THE IMS DISPLAY COMPONENTS.    *
*    CERTAIN IMS MODULES USE ADDITIONAL REGISTERS AND THE LINK MACRO  *
*    FOR PASSING OR RETRIEVING DATA PARAMETER INFORMATION AND ARE     *
*    DETAILED BELOW:                                                  *
*                                                                     *
*     MODULE    REGISTER    CONTENTS.                                 *
*    --------   --------    ------------------------------------      *
*    BNGIDISP     R5        PASSES ADDRESS OF IMS PROGRAM             *
*                           COMMUNICATION BLOCK (PCB) TO              *
*                           BNGI3270, BNGIMENU, BNGILOCL, AND         *
*                           BNGIRMOT.                                 *
*                                                                     *
*                 R11       PASSES TO BNGIREAD THE ADDRESS OF A       *
*                           PARAMETER LIST CONTAINING:                *
*                                                                     *
*                          1) 4-BYTES - ADDRESS OF I/O AREA FROM      *
*                                       BNGIREAD                      *
*                                                                     *
*                          2) 3-BYTES - RELATIVE BLOCK ADDRESS TO     *
*                                       BE READ BY BNGIREAD           *
*                                                                     *
*                          3) 2-BYTES - STATUS OF READ FROM           *
*                                       BNGIREAD                      *
*                                                                     *
*                 R12      FOR BNGI3270, PASSES THE ADDRESS OF A      *
*                          COMMUNICATION AREA CONTAINING              *
*                          UP TO SIX EDITTED PARM FIELDS, SAVE        *
*                          AND WORK AREAS, AND THE INPUT MESSAGE.     *
*                                                                     *
*                          FOR BNGILOCL, BNGIRMOT, AND BNGIMENU;      *
*                          PASSES THE ADDRESS OF THE INPUT MESSAGE.   *
*                                                                     *
*    BNGIREAD    LINK TO BNGIDCBA       RETRIEVES THE ADDRESS OF THE  *
*                (ALIAS FOR BNGISIMS)   ADDRESS OF THE SYS1.DEMFLOG   *
*                                       DCB.                          *
*                                                                     *
*                 R11      RECEIVES ADDRESS OF PARAMETER LIST         *
*                          (SEE BNGIDISP R11 FOR LIST).               *
*                                                                     *
*    BNGI3270     R5      RECEIVES ADDRESS OF IMS PCB FROM BNGIDISP   *
*                                                                     *
*                 R11     PASSES TO BNGIREAD THE ADDRESS OF A         *
*                         PARAMETER LIST (SEE BNGIDISP R11 FOR LIST)  *
*                                                                     *
*                 R12     RECEIVES FROM BNGIDISP THE ADDRESS OF THE   *
*                         COMMUNICATION AREA (SEE BNGIDISP R12 FOR    *
*                         CONTENTS OF AREA).                          *
*                                                                     *
*    BNGIMENU     R5      RECEIVES ADDRESS OF IMS PCB FROM BNGIDISP   *
*                                                                     *
*                 R12     RECEIVES ADDRESS OF INPUT MESSAGE FROM      *
*                         BNGIDISP.                                   *
*                                                                     *
*    BNGILOCL     R5      RECEIVES ADDRESS OF IMS PCB FROM BNGIDISP   *
*                                                                     *
*                 R12     RECEIVES ADDRESS OF INPUT MESSAGE FROM      *
*                         BNGIDISP.                                   *
*                                                                     *
*    BNGIRMOT     R5      RECEIVES ADDRESS OF IMS PCB FROM BNGIDISP   *
*                                                                     *
*                 R12     RECEIVES ADDRESS OF INPUT MESSAGE FROM      *
*                         BNGIDISP.                                   *
*                                                                     *
*                                                                     *
*    PATCH LABEL = NONE                                               *
*                                                                     *
* MODULE TYPE = IMS DISPLAY CONTROL                                   *
*                                                                     *
*    PROCESSOR = ASSEMBLER H                                          *
*                                                                     *
*    MODULE SIZE = 9047 DECIMAL BYTES                                 *
*                                                                     *
*    ATTRIBUTES = SERIALLY REUSABLE                                   *
*                                                                     *
* ENTRY POINT = BNGIDISP                                              *
*                                                                     *
*    PURPOSE = SEE FUNCTION                                           *
*                                                                     *
*    LINKAGE = R1  LOADED WITH THE PARAM LIST POINTER                 *
*              R14 LOADED WITH THE RETURN ADDR (USED BY SUBROUTINE)   *
*              R15 LOADED WITH ENTRY POINT                            *
*                                                                     *
* INPUT = PARAM LIST ITEMS USED ARE :  MSGIN  (LABEL)                 *
*                                                                     *
* OUTPUT = PARAM LIST ITEMS USED ARE : MSGOUT (LABEL)                 *
*                                                                     *
* EXIT-NORMAL = REGISTER 15 RETURN CODE RETURNED TO CALLER :          *
*               00 - OPERATION PERFORMED AS REQUESTED                 *
*                                                                     *
* EXIT-ERROR  = NONE                                                  *
*                                                                     *
* EXTERNAL REFERENCE = BNGILOCL,BNGIRMOT,BNGIMENU,BNGI3270 & BNGIREAD *
*                                                                     *
*    ROUTINES = LOCATE ROUTINE                                        *
*               MOD1SCAN ROUTINE                                      *
*               MOD1 TABLE BUILD (AT LABEL S215) ROUTINE              *
*                                                                     *
*    DATA AREAS = NONE                                                *
*                                                                     *
*    CONTROL BLOCK = NONE                                             *
*                                                                     *
* TABLES = TABLE    - FUNCTION/COMPANION TABLE                        *
*          MOD1TAB  - 3277 MODEL 1 TABLE                              *
*          HXTOEB   - HEX CHARS TO EBCDIC CHARS TABLE                 *
*          EBTOHX   - EBCDIC CHARS TO HEX CHARS TABLE                 *
*          LOTOUP   - LOWER TO UPPER CASE CHARS TABLE                 *
*                                                                     *
* MACROS = SAVE, RETURN, CALL(FOR GET/PUT MSG), ABEND                 *
*          (HARD CODED LINK)                                          *
*                                                                     *
* CHANGE ACTIVITIES AS FOLLOWS:                                       *
* CHANGE 01  11/15/77  PROLOGUE ADDED                                 *
* CHANGE 02  02/22/77  BNGHJN MACRO ADDED                             *
*D122000,128500-129000                                         @OZ29912
*C181500                                                       @OZ29912
*A123500,614000,635000                                         @OZ29912
*A489500                                                       @OZ31883
*D417500-418500                                                @OZ31879
*C420000-421000,505500-506000,553000-554000,555500-559000      @OZ31879
*C560500-563000                                                @OZ31879
*A373500,614200,635400                                         @OZ31886
*                                                                     *
***********************************************************************
***********************************************************************
*                                                                     *
BNGIDISP TITLE 'DISPLAY AUDITS INPUT AND DISPLAYS ALL LINES,LINE, CTRL'
*                                                                     *
***********************************************************************
         SPACE
PCB      DSECT                 MAP OF IMS PROGRAM COMMUNICATION BLOCK
         USING *,PCBREG
PCBTERMN DS    CL8                 REQUESTING TERMINAL SYMBOLIC NAME
         DS    CL2                 RESERVED
PCBSTAT  DS    CL2                 DL/I STATUS CODE
PCBDATE  DS    PL4                 TRANSACTION DATE STAMP 00YYDDDF
PCBTIME  DS    PL4                 TRANSACTION TIME STAMP HHMMSSTH
PCBSEQ   DS    F                   TRANSACTION SEQUENCE NUMBER
PCBMODNM DS    CL8                 MFS MESSAGE OUTPUT DESCRIPTOR NAME
FIOADBA  DSECT
         USING *,FIOABAR
CTRLLAST DS    F                   LAST USED ADDR IN DATASET
CTRLTOTL DS    F                   TOTAL BLOCKS IN DATASET
CTRLBACK DS    F                   BACKWARD PTR IN CTRL BLK CHAIN
CTRLFWD  DS    F                   FORWARD PTR IN CTRL BLK CHAIN
CTRLENTS DS    C                   NBR ENTRIES IN THIS CTRL BLK
         DS    CL15                FOR FUTURE USE
CTRLSLT1 DS    0C                  START OF CTRL SLOT NBR ONE.
         ORG   FIOADBA
DATAPORT DS    CL6                 PORT & LIB ADDR
DATATIME DS    CL4                 TIME BLOCK CREATED
DATADATE DS    CL4                 DATE BLOCK CREATED
DATAFWD  DS    CL3                 FORWARD CHAIN ADDR
DATABACK DS    CL3                 BACKWAD CHAIN ADDR
BLKLTH   DS    CL2                 NBR BYTES USED IN THIS BLOCK
         DS    CL10
DATASLT1 DS    0C                  START OF 1ST DATA SLOT
SLOTS    DSECT           MAP OF ENTRIES IN CONTROL BLOCK
         USING *,DATAREG
SLOTLINE DS    CL6                CHANNEL ADDRESS(PORT OR LIB)
SLOTNBC  DS    CL2                NUMBER OF BLOCKS IN THIS CHAIN
SLOTHITS DS    CL2                TOTAL HITS ON THIS LINE
SLOTRFB  DS    CL3                RELATIVE ADDRESS FIRST BLOCK IN CHAIN
SLOTRLB  DS    CL3                RELATIVE ADDRESS LAST BLOCK IN CHAIN
SLOTLTH  EQU   *-SLOTS
         ORG   SLOTS         MAP OF MDR AND OBR IN DETAIL BLOCKS
DATALTH  DS    C                   LTH OF THIS SLOT
LINEIDA  DS    CL6                 LINE AND LIB ADDR
ENTRYTYP DS    C                   ENTRY TYPE - MDR OR OBR
         DS    CL3
MDRTYPE  DS    C                   TYPE HDWE - 03 EQUALS 3270
         DS    CL3
DATE     DS    CL4                 DATE OF ERROR - 00YY0DDF
TIME     DS    CL4                 TIME OF ERROR - HHMMSSHH
         DS    CL8
MDRCUA   DS    CL2                 MDR CHAN & UNIT ADDR
MDRCTRL  DS    C                   MDR CTRL UNIT POLL ADDR
MDRTERM  DS    C                   MDR TERMIL POLL ADDR
MDRSTATS DS    CL2                 REMOTE 3270 STATUS
         DS    CL2
OBRCCW   DS    CL8                 LAST CCW EXECUTED
OBRCSW   DS    CL8                 CHANNEL STATUS WORD
         DS    CL6
OBRUCB   DS    C
         DS    CL3
OBRCUA   DS    CL2                 OBR CHAN & UNIT ADDR
OBRCTRL  DS    C
OBRTERM  DS    C
         DS    CL12
OBRSENSE DS    CL2                 OBR SENSE BYTES
***********************************************************************
BNGIDISP CSECT
R1       EQU   1
BASE1    EQU   2             BASE REGISTER ONE = 0-4095
BASE2    EQU   3             BASE REGISTER TWO = 4096-8191
BASE3    EQU   4             BASE REGISTER THREE = 8192-12287
PCBREG   EQU   5             IMS PGM COMM BLOCK BASE
FIOABAR  EQU   6             POINTS TO FIOA
PARMREG  EQU   6             POINTS TO PARM AREA
OUTREG   EQU   7             POINTS TO DATA IN TIOA AREA
OUTLOOP  EQU   8             USED FOR LOOPING THRU DATA IN TIOA AREA
DATAREG  EQU   9             POINTS TO DATA IN FIOA AREA
DATALOOP EQU   10            USED FOR LOOPING THRU DATA IN FIOA AREA
TABLEREG EQU   11            POINTS TO FUNCTION/COMPANION TABLE AND
*                              VTAM DSECT.
LINKREG  EQU   11                  SUBROUTINE LINKAGE
R11      EQU   11
MOD1REG  EQU   12            POINTS TO MOD-1 TABLE
R13      EQU   13
R14      EQU   14
R15      EQU   15
***********************************************************************
*                                                                     *
*        THIS SECTION DOES PROGRAM INITIALIZATION                     *
*                                                                     *
***********************************************************************
         SAVE  (14,12)             SAVE CALLER'S REGISTERS
         BALR  BASE1,0
         USING *,BASE1,BASE2,BASE3
BNGIDISP BNGHJN SKIPID                                         @OZ29912
         LA    BASE2,2048(BASE1)    SET SECOND BASE
         LA    BASE2,2048(BASE2)       FROM THE FIRST
         LA    BASE3,2048(BASE2)    SET THIRD BASE
         LA    BASE3,2048(BASE3)       FROM THE SECOND
         LA    14,SAVE             POINT TO OUR SAVE AREA
         ST    14,8(13)            FORWARD CHAIN FROM OLD
         ST    13,4(14)            BACKWARD CHAIN TO OLD
         LR    13,14               FIRST BASE AND S/A FOR OUR REGS
         B     GO
SAVE     DS    18F                 SAVE AREA
GO       DS    0H
         MVC   IOPCB+1(3),1(R1)     SAVE IOPCB ADDRESS
***********************************************************************
*                                                                     *
*        THIS SECTION  GETS A TRANSACTION                             *
*                                                                     *
***********************************************************************
GETRANS  DS    0H
         MVI   MOD1TABL,C' '       BLANK OUT MOD-1 TABLE AREA
         MVC   MOD1TABL+1(63),MOD1TABL
         MVI   MOD1SW,X'00'        SET MOD-1 SWITCH OFF
         MVI   ERRDATA,C' '        BLANK OUT ERROR MESSAGE AREA
         MVC   ERRDATA+1(116),ERRDATA  *
         L     PCBREG,IOPCB        POINT TO IOPCB
         CALL  ASMTDLI,(GU,(PCBREG),MSGIN),VL     GET INPUT MSG
         CLC   PCBSTAT,DLIOK       MESSAGE SEGMENT OBTAINED?
         BE    A100                GO RESPOND TO MESSAGE IF SO
         CLC   PCBSTAT,DLIQC       NO MORE TRANSACTIONS AVAILABLE?
         BNE   ABEND1              INFORM SOMEONE IF UNKNOWN STATUS
         L     R13,4(R13)          RESTORE INCOMING SAVE AREA ADDRESS
         RETURN (14,12),T,RC=0     RELINQUISH CONTROL
ABEND1   ABEND 666,DUMP
CHECKST  CLC   PCBSTAT,DLIOK       DID ISRT GO OK?
         BE    GETRANS             IF SO, GET ANOTHER MESSAGE
ABENDMSG ABEND 444,DUMP
         EJECT
***********************************************************************
*                                                                     *
*        THIS SECTION EDITS THE INPUT MESSAGE.                        *
*                                                                     *
***********************************************************************
A100     ZAP   FLDCNT,=P'0'        SET KEYED-IN FIELD COUNTER TO ZERO.
         XC    PARM1(48),PARM1     ZERO OUT PARM FIELDS
         MVC   PARM1(4),MSGTXCD    MOVE TRANSACTION CODE 'DEMF'
         LH    DATAREG,TIOATDL     SET DATAREG = LNGTH OF INPUT
         CH    DATAREG,=H'9'       'DEMF ' ONLY ENTERED FROM CLEAR SCR?
         BNH   D28                 YES. GOTO BNGIMENU
         CLC   MSGKEYED,=CL29' '   WAS REQUEST KEYED IN?
         BNE   A150                YES.
         CLC   MSGCMDCD,=C'MENU'   IS INPUT ENTERED ON PAGE1?
         BNE   A115                NO.
         CLC   MSGDPRSS,=C'DEPRESS'     IS INPUT ENTERED FROM PAGE 1?
         BNE   D28                      NO.  GO TO BNGIMENU RTN
         CLI   MSGALL,C' '         IS ALL CHECKED?
         BNE   A100ALL             YES.
         CLI   MSG3270,C' '        IS 3270 CHECKED?
         BNE   A150                YES.
         CLI   MSGRMOT,C' '        IS REMOTE CHECKED?
         BNE   A100RMOT            YES.
         CLI   MSGLOCL,C' '        IS LOCAL CHECKED?
         BNE   A100LOCL            YES.
         B     D28                 GO CALL BNGIMENU RTN
A100ALL  MVC   PARM2(3),=C'ALL'    MOVE CMND TO PARM2
         B     D10
A100RMOT MVC   PARM2(4),=C'REMO'   MOVE CMND TO PARM2
         B     D10
A100LOCL MVC   PARM2(4),=C'LOCA'   MOVE CMND TO PARM2
         B     D10
A115     MVC   PARM2(4),MSGCMDCD   MOVE COMMAND ALL, LINE, CTRL,
*                                                3270, OR MENU
         MVC   SAVEBBSS,MSGBBBSS   SAVE BBBSS FOR LINKED-TO PGM
         CLI   MSGPGF,C' '         IS THIS A PAGE FORWARD REQUEST?
         BNE   A120                YES.
         CLI   MSGPGB,C' '         IS THIS A PAGE BACKWARD REQUEST?
         BE    A140                NO.  MUST BE COMPANION REQUEST
         MVC   PARM4(4),=C'PAGE'
         MVC   PARM5(7),=C'BACKWRD'
         B     D10                 CONT NORMAL PROCESSING
A120     MVC   PARM4(4),=C'PAGE'
         MVC   PARM5(7),=C'FORWARD'
         B     D10
A140     CLC   MSGCMDCD,=C'3270'   IS THIS FROM 3270 SCREEN?
         BNE   A145                NO.
         CLC   MSGNTRY(4),=C'BITS' IS THIS FROM BITS PRMPTR SCR?
         BE    D10                 YES. GOTO BNGI3270 PGM
A145     MVC   PARM3,MSGNTRY+4     MOVE X'ED-IN DATA TO PARM3
         OC    PARM3,PARM3         WAS ANYTHING X'ED?
         BZ    D28                 NO. GOTO BNGIMENU
         B     C109                YES. CK FOR COMPANION REQUEST
A150     LA    DATAREG,MSGKEYED    POINT TO KEYED-IN DATA
         LR    DATALOOP,DATAREG    SETUP DATA LOOP
         AH    DATALOOP,=H'29'
         LA    PARMREG,PARM2       POINT TO PARMS.
         LR    14,PARMREG
         MVI   NEWPARM,C'1'        TURN ON 'NEW PARM' SWITCH.
         MVI   CTRPARM,X'00'       SET PARM CHAR CTR = 0
A160     CLI   0(DATAREG),X'FF'    IS THIS BYTE A X'FF'?
         BNE   A210                NO.
         CLI   PARM3,X'00'         YES. IS PARM3 = SYMNAME ?
         BE    A155                NO. GO SET SYMNAME FROM PCBTERMN
         MVC   TWALINE(8),PARM3    YES. SET SYMNAME FROM PARM3
         B     A156                AND LOAD LLLCCTT/TTT IN PARMS
A155     MVC   TWALINE(8),PCBTERMN MOVE DEFAULT SYMNAME IN TWALINE
A156     XC    PARM3(32),PARM3     CLEAR PARMS FOR HARDWARE ADDR
         MVC   PARM3(3),1(DATAREG) LOAD PARM3 = LLL OR TTT
         MVC   PARM4(2),4(DATAREG) LOAD PARM4 = CC
         MVC   PARM5(2),6(DATAREG) LOAD PARM5 = TT
         CLC   PARM4(2),=C'00'     IF PARM4 = ZEROS
         BNE   A158                   THEN ZERO-OUT PARM4
         XC    PARM4(16),PARM4                    & PARM5.
A158     AP    FLDCNT,=P'1'          INDICATE TO BNGI3270 PGM THAT
*                                    DATA WAS KEYED IN
         B     D10
A210     CLI   0(DATAREG),X'FE'    IS THIS BYTE A 'FE' ?       @OZ29912
         BNE   A250                NO.                         @OZ29912
         MVC   MSG10NAM,1(DATAREG) YES.MOVE VTAM NAME TO ERRMSG@OZ29912
         B     Z100                GO WRITE ERR MSG.           @OZ29912
A250     CLI   0(DATAREG),C'A'     IS IT AN 'A' OR HIGHER?     @OZ29912
         BL    B80                 NO. CHECK NEW PARM SWITCH.
         CLI   NEWPARM,C'1'        IS FIRST CHAR FOR PARM(X)?
         BNE   B10                 NO.
         MVI   NEWPARM,C'0'        YES. SET FIRST CHAR IN FOR PARM
         MVI   CTRPARM,X'00'       SET PARM CHAR CTR = 0
B10      IC    R11,CTRPARM         LOAD R11 = CTRPARM
         LA    R11,1(R11)          ADD CTRPARM = CTRPARM + 1
         STC   R11,CTRPARM         STORE NEW CTR BACK CTRPARM
         CLI   CTRPARM,X'08'       IS CHAR COUNT IN PARM OVER 8 ?
         BNH   B20                 NO.
         CLC   PARM2(6),=C'REMOTE' IS THIS A REMOTE SCREEN ?
         BE    B40                 YES. CONTINUE
         B     Z40                 NO. ISSUE INVALID FORMAT MSG
B20      MVC   0(1,14),0(DATAREG)  PUT THIS BYTE IN THIS PARM
         CLI   PARM6+7,X'00'       ARE ALL PARMS USED UP?
         BNE   C10                 YES. GOTO SYNTAX CHECKING ROUTINE
         LA    14,1(14)            BUMP PARM POINTER WORKREG.
B40      LA    DATAREG,1(DATAREG)  BUMP TIOA POINTER.
         CR    DATAREG,DATALOOP    IS THERE MORE DATA IN TIOA?
         BL    A160                YES. GO PROCESS MORE DATA.
         B     C10                 NO. GOTO SYNTAX CHECKING ROUTINE
B80      CLI   NEWPARM,C'1'        IS NEW-PARM SWITCH ON?
         BE    B40                 YES. CHECK FOR MORE DATA.
         CLI   PARM6,X'00'         NO. ARE ALL PARMS USED UP?
         BNE   C10                 YES. GOTO SYNTAX CHECKING ROUTINE
         AP    FLDCNT,=P'1'        ONE  FIELD ENTERED INTO PARM
         LA    PARMREG,8(PARMREG)  NO. BUMP TO NEXT NEW PARM.
         LR    14,PARMREG          POINT WORK REG TO NEXT PARM.
         MVI   NEWPARM,C'1'        TURN ON NEW-PARM SWICH.
         B     B40                 GO CHECK FOR MORE DATA.
***********************************************************************
*                                                                     *
*        AT THIS POINT UP TO 5 PARMS HAVE BEEN EDITED AND             *
*        ARE LEFT JUSTIFIED WITH TRAILING X'00'S                      *
*                                                                     *
***********************************************************************
         EJECT
***********************************************************************
*                                                                     *
*        SYNTAX CHECKING ROUTINE                                      *
*                                                                     *
***********************************************************************
C10      CLC   PARM2(5),=X'D4C5D5E400' IS PARM2=MENU ?
         BNE   C20                     NO
         CLI   PARM3,X'00'             IS PARM3 = 00 ?
         BE    D28                     YES. GOTO BNGIMENU
         B     Z40                     NO. GO ISSUE INVALID FORMAT MSG
C20      CLC   PARM2(4),=X'C1D3D300'   IS PARM2 = ALL ?
         BNE   C30                     NO
         CLI   PARM3,X'00'             IS PARM3 = 00 ?
         BE    D10                     YES.GO SCHEDULE APPROPRIATE PGM
         B     Z40                     NO. GO ISSUE INVALID FORMAT MSG
C30      CLC   PARM2(6),=X'D3D6C3C1D300'  IS PARM2 = LOCAL ?
         BNE   C40                        NO
         CLI   PARM3,X'00'             IS PARM3 = 00 ?
         BE    D10                     YES.GO SCHEDULE APPROPRIATE PGM
         CLC   PARM3+1(2),=C'SS'       IS LOCAL/REMOTE SCREEN ?
         BE    D10                     YES.
         B     Z40                     NO. GO ISSUE INVALID FORMAT MSG
C40      CLC   PARM2(6),=X'D9C5D4D6E3C5' IS PARM2 = REMOTE ?
         BNE   C50                     NO.
         CLC   PARM2+7(1),=C'S'        IS REMOTE SCREEN ?
         BE    C45                     YES.
         CLI   PARM2+6,X'00'           IS REMOTE SYNTAX ERROR ?
         BNE   Z40                     YES. GO ISSUE INVALID FORMAT MSG
         CLI   PARM3,X'00'             IS PARM3 = 00 ?
         BE    D10                     YES.GO SCHEDULE APPROPRIATE PGM
         B     Z40                     NO. GO ISSUE INVALID FORMAT MSG
C45      CLI   PARM3,X'00'             IS REMOTE SCREEN ?
         BNE   D10                     YES.
         B     Z40                     NO. GO ISSUE INVALID FORMAT MSG
C50      CLC   PARM2(5),=X'D3C9D5C500' IS PARM2 = LINE ?
         BNE   C60                     NO
         CLI   PARM4,X'00'             IS PARM4 = 00 ?
         BNE   Z40                     NO. GO ISSUE INVALID FORMAT MSG
C55      CLI   PARM3+3,X'00'           LINE ADDR = 4 OR MORE ?
         BNE   Z40                     YES.
         CLI   PARM3+2,X'00'           LINE ADDR = 2 OR LESS ?
         BE    Z40                     YES.
         LA    DATALOOP,3              SET FOR SCAN 3 CHARS
         LA    DATAREG,PARM3           SET DATAREG = PARM3 PTR
C57      CLI   0(DATAREG),X'F0'        IS BYTE(PARM3) >= C'0' ?
         BNL   C59                     YES. IT IS NUMERIC
         CLI   0(DATAREG),X'C6'        IS BYTE(PARM3) > C'F' ?
         BH    Z40                     YES. IT IS INVALID FORMAT
C59      LA    DATAREG,1(DATAREG)      BUMP TO NEXT BYTE OF PARM3
         BCT   DATALOOP,C57            LOOP
         B     D10                     NO. GO SCHEDULE APPROPRIATE PGM
C60      CLC   PARM2(5),=X'C3E3D9D300' IS PARM2 = CTRL ?
         BNE   C70                     NO
         CLI   PARM5,X'00'             IS PARM5 = 00 ?
         BNE   Z40                     NO.
         CLI   PARM4,X'00'             IS PARM4 = 00 ?
         BE    C55                     YES.
C65      CLI   PARM4+2,X'00'           CTRL ADDR = 3 OR MORE ?
         BNE   Z40                     YES.
         CLI   PARM4+1,X'00'           CTRL ADDR = 1 OR LESS ?
         BE    Z40                     YES.
C66      LA    DATALOOP,2              SET FOR SCAN 2 CHARS
         LA    DATAREG,PARM4           SET DATAREG = PARM4 PTR
C67      CLI   0(DATAREG),X'F0'        IS BYTE(PARM3) >= C'0' ?
         BNL   C69                     YES. IT IS NUMERIC
         CLI   0(DATAREG),X'C6'        IS BYTE(PARM3) > C'F' ?
         BH    Z40                     YES. IT IS INVALID FORMAT
C69      LA    DATAREG,1(DATAREG)      BUMP TO NEXT BYTE OF PARM3
         BCT   DATALOOP,C67            LOOP
         B     C55                     NO. GO CHECK LINE ADDR (PARM3)
C70      CLC   PARM2(5),=X'F3F2F7F000' IS PARM2 = 3270 ?
         BNE   Z40                     NO.
         CLI   PARM6,X'00'             IS PARM6 = 00 ?
         BNE   Z40                     NO.
         CLI   PARM5,X'00'             IS PARM5 = 00 ?