         PRINT OFF
         MACRO
&NAME    BNGHJN &LABEL,&HJN
         LCLC  &HJA,&HJB
&HJA     SETC  '&SYSPARM'(1,4)
&HJB     SETC  '&SYSPARM'(5,4)
         AIF   ('&LABEL' EQ '').NOBRNCH
         B     &LABEL .                 BR AROUND CONSTANTS
         SPACE 2
.NOBRNCH ANOP
         AIF   ('&NAME' EQ '').NOLABEL
         DC    C'&NAME' .              MODULE IDENTIFIER
.NOLABEL ANOP
         DC    X'&HJA' .                DATE OF MODIFICATION
         AIF   ('&HJN' NE 'HJN').DATE
         DC    X'&HJB' .                HJN OF MODIFICATION
.DATE    ANOP
         AIF   ('&LABEL' EQ '').NOLBL
         SPACE 2
&LABEL   DS    0H
.NOLBL   ANOP
         MEND
         PRINT ON
***********************************************************************
*                                                                     *
* MODULE NAME = BNGT3270                                              *
*                                                                     *
* DESCRIPTIVE NAME = TCAM DEMF 3270 DISPLAY MODULE                    *
*                                                                     *
* COPYRIGHT = NONE                                                    *
*                                                                     *
* STATUS = RELEASE 1, LEVEL 1                                         *
*                                                                     *
* FUNCTION = 1) BNGT3270 IS LINKED TO BY BNGTDISP;                    *
*            2) HANDLES 3270 DISPLAY TERMINAL ERROR INFORMATION       *
*               REQUEST AND BITS PROMPTER REQUEST;                    *
*            3) ACCESSES SYS1.DEMFLOG DATA FILE AND COLLECTS THE      *
*               REQUESTED 3270 ERROR INFORMATION FROM IT;             *
*            4) FORMS OUTPUT MESSAGE AND WRITES IT TO THE 3270 DISPLAY*
*               TERMINAL; (ERR INFO AND SOME OF DISPLAY MESSAGES)     *
*            5) RETURNS CONTROL TO BNGTDISP.                          *
*                                                                     *
* NOTES = NONE                                                        *
*                                                                     *
*    DEPENDENCIES = NONE                                              *
*                                                                     *
*    RESTRICTIONS = NONE                                              *
*                                                                     *
*    REGISTER CONVENTIONS = R10 RECEIVES ADDRESS OF I/O MESSAGE AREA  *
*                           FROM BNGTDISP                             *
*                                                                     *
*    PATCH LABEL = NONE                                               *
*                                                                     *
* MODULE TYPE = TCAM DISPLAY                                          *
*                                                                     *
*    PROCESSOR = ASSEMBLER H                                          *
*                                                                     *
*    MODULE SIZE = 7623 DECIMAL BYTES                                 *
*                                                                     *
*    ATTRIBUTES = SERIALLY REUSABLE                                   *
*                                                                     *
* ENTRY POINT = BNGT3270                                              *
*                                                                     *
*    PURPOSE = SEE FUNCTION                                           *
*                                                                     *
*    LINKAGE = R1  LOADED WITH THE PARAM LIST POINTER                 *
*              R14 LOADED WITH THE RETURN ADDR (USED BY SUBROUTINE)   *
*              R15 LOADED WITH ENTRY POINT                            *
*                                                                     *
* INPUT = PARAM LIST ITEMS USED ARE :                                 *
*         IN MESSAGE ADDRESS  = TCAMFLDS (R10)                        *
*         IN MESSAGE COUNT    = VARIABLE (MAXIMUM=117 BYTES)          *
*                                                                     *
* OUTPUT = PARAM LIST ITEMS USED ARE :                                *
*         OUT MESSAGE ADDRESS = TIOADBAO (R10)                        *
*         OUT MESSAGE COUNT   = VARIABLE (MAXIMUM=2008 BYTES)         *
*                                                                     *
* EXIT-NORMAL = REGISTER 15 RETURN CODE RETURNED TO CALLER :          *
*               00 - OPERATION PERFORMED AS REQUESTED                 *
*                                                                     *
* EXIT-ERROR  = SYNAD ROUTINE AT LABEL - F1900                        *
*                                                                     *
* EXTERNAL REFERENCE = NONE                                           *
*                                                                     *
*    ROUTINES = LOCATE ROUTINE                                        *
*               GETTIOA ROUTINE (GET TERMINAL OUTPUT AREA)            *
*               BUOBR ROUTINE (BLOW-UP OBR ROUTINE)                   *
*               BUMDR ROUTINE (BLOW-UP MDR ROUTINE)                   *
*                                                                     *
*    DATA AREAS = SEE INPUT AND OUTPUT ABOVE                          *
*                                                                     *
*    CONTROL BLOCK = DCB (AT LABEL EMFILE)                            *
*                                                                     *
* TABLES = CALENDAR - CONVERT JULIAN DATE TO GREGORIAN DATE TABLE     *
*          LEAPTBL  - LEAP YEAR CALCULATION TABLE                     *
*          CCWTABL  - CONVERT 270X COMMAND CODE INTO ENGLISH          *
*          CSWTABL  - CONVERT LOCAL 327X STATUS OR 270X LINE STATUS   *
*                     INTO ENGLISH                                    *
*          SENSTABL - CONVERT 270X LINE SENSE CODE INTO ENGLISH       *
*          STATSTBL - CONVERT REMOTE 327X STATUS CODE INTO ENGLISH    *
*          SENS3272 - CONVERT LOCAL 327X SENSE CODE INTO ENGLISH      *
*          CCW3272  - CONVERT LOCAL 327X COMMAND CODE INTO ENGLISH    *
*          TPOPTBL  - CONVERT BTAM TP OP CODE INTO ENGLISH            *
*          TCAMPTOP - CONVERT TCAM TP OP CODE INTO ENGLISH            *
*          HXTOEB   - HEX CHARS TO EBCDIC CHARS TABLE                 *
*          EBTOHX   - EBCDIC CHARS TO HEX CHARS TABLE                 *
*                                                                     *
* MACROS = LINK, SAVE, RETURN, OPEN, READ, CHECK, CLOSE, TIME         *
*                                                                     *
******************CHANGE ACTIVITIES AS FOLLOWS:************************
* CHANGE 01  11/15/77  PROLOGUE ADDED                                 *
* CHANGE 02  02/27/78  BNGHJN MACRO ADDED                             *
*A143000,287000                                                @OZ30478
*D144500-145000                                                @OZ30478
*C081500-089000                                                @OZ30675
*A207500,485000,543500                                         @OZ31884
*D636000-639000                                                @OZ31884
*                                                                     *
*                                                                     *
***********************************************************************
R0       EQU   0
R1       EQU   1              REGISTER ONE
R8       EQU   8
REG9     EQU   9
BASE1    EQU   2                   1ST PROGRAM BASE REG.
BASE2    EQU   4                   2ND PROGRAM BASE REG.
TIOABAR  EQU   5                   TIOA POINTER.
FIOABAR  EQU   6                   FIOA POINTER.
DATAREG  EQU   7                   POINTER TO DATA IN EMF FILE BLOCK.
DATALOOP EQU   8                   LOOP REG FOR PROCESSING WITH DATAREG
OUTREG   EQU   9                   POINTER TO VARIABLE AREA IN TIOA.
LINKREG  EQU   11                  LOOP REG FOR PROCESSING WITH OUTREG.
OUTLOOP  EQU   12                  LINKAGE TO COMMON SUBROUTINES.
R14      EQU   14
R15      EQU   15
SBA      EQU   X'11'
SF       EQU   X'1D'
IC       EQU   X'13'
UMN      EQU   X'41'               UNPROT,NORMAL,MODIFIED
UNA      EQU   X'40'
PNA      EQU   X'60'
UHA      EQU   X'C8'
PDA      EQU   X'E8'
PIA      EQU   X'6D'
MNP      EQU   X'61'
SML2P1   EQU   X'40E8'
SML3P1   EQU   X'C150'
SML4P1   EQU   X'C1F8'
L1P1     EQU   X'4040'
L2P1     EQU   X'C150'
L3P1     EQU   X'C260'
L4P1     EQU   X'C3F0'
SML5P1   EQU   X'C260'   LINE 5 POSITION 1 FOR MOD-1 SCREEN
L1P36    EQU   X'40E3'
L1P7     EQU   X'40C6'
L3P39    EQU   X'C1F6'
L2P79    EQU   X'C25E'
L6P26    EQU   X'C6E9'
TCAMOBR  EQU   X'34'
BTAMOBR  EQU   X'30'
TCAMFLDS DSECT
         USING *,10
TIOATDL  DC    X'0000'    TERMINAL DATA LENGTH
TCTTETT  DS    CL1   91=REMOTE  99=LOCAL 3270
TCTTETM  DS    CL1    F1=MODEL 1  F2=MODEL 2 3270
TCTTEGU  DS    0H     EUATE LOCAL LINE ADDRESES
TCTLERLN DS    CL3     LINE ADDRESS RELATIVE LINE #
TCTTETA  DS    CL1   CONTROL UNIT ADDRESS
         DS    CL1     TERNINAL ADDRESS REMOTE
TIOADBA  DS    CL100        TERMINAL INPUT AREA
TCTTETI  DS    CL8          TCAM  SYMBOLIC ADDRESS
TIOWCC   DC    X'C3'       WRITE ERASE
TIOADBAO DS    CL2000     TERMINAL OUTPUT AREA
         ORG   TIOADBA             POINT TO INPUT AREA
SBA1     DS    CL3                 IST SBA POSITION
CODE     DS    CL4                 TRANS CODE.
SBA2     DS    CL3                 2ND SBA
PGRM     DS    CL4                 PROGRAM NAME.
SBA3     DS    CL3                 3RD SBA.
FLP      DS    CL15                FIRST/LAST/PREVIOUS IF BLOWUP RQST.
SBA4     DS    CL3                 4TH SBA.
BUX      DS    CL4                 X FOR BLOWUP REQUEST.
TIOITEM  DS    CL5                 ITEM ADDRESS TO BLOWUP.
         ORG   FLP
         DS    C                   FOR FORWARD AND BACKWARD PAGE REQ XH
         DS    CL3                 ALTERNATE POSN FOR 4TH SBA
TIOFIRST DS    CL5                 BLK & SLT 1ST ITEM ON SCREN.
TIOLAST  DS    CL5                 BLK & SLT FOR LAST
TIOPREV  DS    CL5                 BLK & SLT 1ST ITEM PREVIOUS SCREEN.
         DS    CL3                 5TH SBA
RTNX     DS    C                   X FOR RETURN FROM BLOWUP
BNGTDISP DSECT
         DS    4F                                              @OZ30675
         USING EMFILE,3                                        @OZ30675
EMFILE DCB DDNAME=EMFILE,DSORG=DA,MACRF=(RIC),OPTCD=R,                 X
               RECFM=F
SAVREG   DS    A                   RETURN SAVE AREA ADDRESS
SAVAREA  DS    18F                 DEMFDISP SAVE AREA
TCAFCAAA DS    A
TCTTEDA  DS    A                   ADDRESS OF PASSED FIELD
TCAPCPI  DC    CL8'00'    SYMBOLIC PROGRAM NAME TO LINK TO
TCAFCAA  DS    A                   FILE I/O AREA ADDRESS
         DS    0H
TWAAREA  EQU   *        START OF TRANSACTION WORK AREA PAASE PARMS
PARM1    DS    D                   1ST INPUT FIELD.
PARM2    DS    D                   2ND INPUT FIELD.
PARM3    DS    D                   3RD INPUT FIELD.
PARM4    DS    D                   4TH INPUT FIELD.
PARM5    DS    D                   5TH INPUT FIELD.
PARM6    DS    D                   6TH INPUT FIELD.
TWASBAS  DS    PL1                 COUNT OF SBA'S IN INPUT MSG.
TWAREL   DS    CL3                 FILE CONTROL RELATIVE BLK ADDR.
         DS    CL3            SAVE AREA FOR LINE/CTRLREL BLOCK NO.
DUBLWD   DS    D                   WORK AREA
TWATIOA  DS    F                   SAVE INPUT ADDRESS.
TWATCTID DS    F                   SAVE TERML ID.
TWASLOT  DS    F                   SLOT COUNTER.
SAVE14   DS    F                   SAVE AREA.
TWAOUT   DS    F                   SAVE OUTPUT HDR ADDR
LINESZ   DS    H                   LINE SIZE (3277 MOD 1 OR MOD 2)
LINELOOP DS    H                   NBR LINE ITEMS PER LINESZ.
OUTSWCH  DS    C
HXLINLIB DS    0CL6                LINE ADDRESS INCLUDING
         DS    C
HEXLINE  DS    CL2
HEXLIB   DS    CL3
HEXCTRL  DS    C                   CTRL UNIT POLL CHAR.
HEXTERM  DS    C                   TERML POLL CHAR.
NEWFIRST DS    CL5                 SAVE AREA FOR OLD BLK & SLOT NBR.
NEWPREV  DS    CL5                 SAVE AREA FOR OLD BLK & SLOT NBR.
BITFIRST DS    CL5                 SAVE AREA FOR FIRST BLK & SLOT NBR.
BITLAST  DS    CL5                 SAVE AREA FOR LAST  BLK & SLOT NBR.
BITPREV  DS    CL5                 SAVE AREA FOR PREV  BLK & SLOT NBR.
        CNOP   0,4
*                             IF 2ND SBA = L1P7
         ORG   PARM6+X'70'         JUMP PAST DEMFDISP WORK AREA
WORK15   DS    CL5
WORK16   DS    CL5
         DS    CL6
         DC    C'FILE I/O AREA'
         CNOP  0,4
         USING *,FIOABAR
DFHFIOA  DS    0H      FILE I/O AREA ADDRESS
FIOADBA  DC    4096X'00'        FILE INPUT AREA
ENDDATA  DC    X'FFFFFFFF'     MARK END OF DATA
         ORG   ENDDATA+8
PROGSTRT EQU   *
         ORG   FIOADBA
CTRLLAST DS    F                   LAST USED ADDR IN DATASET
CTRLTOTL DS    F                   TOTAL BLOCKS IN DATASET
CTRLBACK DS    F                   BACKWARD PTR IN CTRL BLK CHAIN
CTRLFWD  DS    F                   FORWARD PTR IN CTRL BLK CHAIN
CTRLENTS DS    C                   NBR ENTRIES IN THIS CTRL BLK
         DS    CL15                FOR FUTURE USE
CTRLSLT1 DS    0C                  START OF CTRL SLOT NBR ONE.
         ORG  FIOADBA
DATAPORT DS    CL6                 PORT & LIB ADDR
DATATIME DS    CL4                 TIME BLOCK CREATED
DATADATE DS    CL4                 DATE BLOCK CREATED
DATAFWD  DS    CL3                 FORWARD CHAIN ADDR
DATABACK DS    CL3                 BACKWAD CHAIN ADDR
BLKLTH   DS    CL2                 NBR BYTES USED IN THIS BLOCK
         DS    CL10
DATASLT1 DS    0C                  START OF 1ST DATA SLOT
DATASLOT DSECT
         USING *,DATAREG
DATALTH  DS    C                   LTH OF THIS SLOT
LINEID   DS    CL6                 LINE AND LIB ADDR
ENTRYTYP DS    C                   ENTRY TYPE - MDR OR OBR
         DS    CL3
MDRTYPE  DS    C                   TYPE HDWE - 03 EQUALS 3270
         DS    CL3
DATE     DS    CL4                 DATE OF ERROR - 00YY0DDF
TIME     DS    CL4                 TIME OF ERROR - HHMMSSHH
         DS    CL8
MDRCUA   DS    CL2                 MDR CHAN & UNIT ADDR
MDRCTRL  DS    C                   MDR CTRL UNIT POLL ADDR
MDRTERM  DS    C                   MDR TERMIL POLL ADDR
MDRSTATS DS    CL2                 REMOTE 3270 STATUS
         DS    CL2
OBRCCW   DS    CL8                 LAST CCW EXECUTED
OBRCSW   DS    CL8                 CHANNEL STATUS WORD
OBRDVDEP DS    CL1
         DS    CL5
OBRUCB   DS    C
         DS    CL1
OBRSDR   DS    CL1                 NUMBER BYTES OF STATICAL DATA
         DS    CL1
OBRCUA   DS    CL2                 OBR CHAN & UNIT ADDR
OBRPOLL  DS    CL2                 POLL CHAR
         DS    CL12
OBRSENSE DS    CL2                 OBR SENSE BYTES
         ORG   DATALTH
CTRLPORT DS    CL6                 PORT & LIB ADDRESS
         DS    CL4
CTRLFRST DS    CL3                 REL BLK ADDR 1ST BLK IN CHAIN.
         DS    CL3
SLOTLTH  EQU   *-CTRLPORT
BNGT3270 CSECT
         SAVE  (14,12)       SAVE CALLERS REGISTER
         BALR  BASE1,0
         USING *,BASE1,BASE2
BNGC3270 BNGHJN SKIPID                                         @OZ30478
         LA    BASE2,2048(BASE1)   SETUP PROGRAM BASE REGS.
         LA    BASE2,2048(BASE2)
A0000    ST    13,SAV3270R
         LA    13,SAV3270A
         L     TIOABAR,TCTTEDA     POINT TO TIOA INPUT AREA.
         L     FIOABAR,TCAFCAA  INITIALIZE FILE REG TO POINT FILE AREA
         OPEN  (EMFIL1,(INPUT))
         CP    TWASBAS,=P'2'       WERE LESS THAN 2 FIELDS INPUT?
         BNL   J010                NO. GO EXAMINE INPUT FURTHER.
A010     XC    TWAREL,TWAREL       YES. THIS IS A NEW RECAP REQUEST.
         CLC   PARM3(3),=C'ALL'    IF PARM 3 IS ONE OF THE DEMF
         BE    A140                DISPLAY CODES, THIS INPUT WAS FROM
         CLC   PARM3(4),=C'CTRL'          FORMATTED SCREEN.
         BE    A140                ZERO IT OUT AND TRY AGAIN.
         CLC   PARM3(4),=C'LINE'
         BE    A140
         CLC   PARM3(4),=C'3270'
         BE    A140
         CLC   PARM4(3),=C'ALL'
         BE    A130
         CLC   PARM4(4),=C'CTRL'
         BE    A130
         CLC   PARM4(4),=C'LINE'
         BE    A130
         CLC   PARM4(4),=C'3270'
         BE    A130
         CLC   PARM5(3),=C'ALL'
         BE    A120
         CLC   PARM5(4),=C'CTRL'
         BE    A120
         CLC   PARM5(4),=C'LINE'
         BE    A120
         CLC   PARM5(5),=C'3270'
         BE    A120
         OC    PARM3,PARM3         WAS LINE ID INPUT?
         BNZ   B140                YES. GO SEARCH CTRL BLK FOR IT.
****************************************************************
*  THIS CODE INSERTS LINE, CTRL AND TERMINAL ADDRESS OF THE    *
*  TERMINAL OF THE USER IF HE ENTERS ONLY DEMF 3270
****************************************************************
         MVC   DUBLWD+5(3),TCTLERLN     MOVE LINE ADDRESS TO WORK
         TR    DUBLWD,EBTOHX                 TR LINE ADDRESS
         PACK  DUBLWD(3),DUBLWD+5(4)        PACK IT
         MVC   HEXLINE,DUBLWD        MOVE IT TO BE USED LATER
         MVC   HEXCTRL,TCTTETA                 MOVE IN CTRL UNIT
         MVC   HEXTERM,TCTTETA+1         MOVE IN TERMINAL ADDRESS
         MVC   PARM3(3),TCTLERLN             MOVE IN LINE NUMBER
         MVI   TCTLERLN,X'FF'      IND TO BNGTQEMF TCAMID SHOULD BE INS
         CLI   TCTTETT,X'99'            IS THIS A LOCAL 3270
         BE    D079                     YES,BR NOT CTRL AOR TERM ADR
         UNPK  DUBLWD,TCTTETA(2)
         TR    DUBLWD,HXTOEB
         MVC   PARM4(2),DUBLWD+5    MOVE IN CTRL ADDRESS
         UNPK  DUBLWD,TCTTETA+1(2)
         TR    DUBLWD,HXTOEB
         MVC   PARM5(2),DUBLWD+5       MOVE IN TERMINAL ADDRESS
         B     D079
******************
* THIS SECTION OF CODE SHOULD NOT BE ENTERED AS  SYMBOLIC
*    ADDRESS FOR TCAM DEMF ARE NOT SUPPORTED
****************
A120     XC    PARM5,PARM5
         B     A010
A130     XC    PARM4(16),PARM4
         B     A010
A140     XC    PARM3(24),PARM3     ZERO OUT PARMS 3, 4, AND 5.
         B     A010
*
* AT THIS POINT, IF NO INPUT LINE/CTRL/TERM WAS SPECIFIED, THE
* ADDRESS PERTAINING TO THE REQUESTOR'S TERMINAL HAS BEEN PLACED
* IN THE INPUT PARMS AS IF THEY HAD BEEN KEYED IN.
*
B140     MVC   DUBLWD+5(3),PARM3
         TR    DUBLWD,EBTOHX            GET LINE,
         PACK  DUBLWD(3),DUBLWD+5(4)    CONTROL UNIT,
         MVC   HEXLINE,DUBLWD           AND
         MVC   DUBLWD+5(3),PARM4        TERMINAL
         TR    DUBLWD,EBTOHX            ADDRESS
         PACK  DUBLWD(2),DUBLWD+5(3)    INTO HEX
         MVC   HEXCTRL,DUBLWD           FORMAT
         MVC   DUBLWD+5(3),PARM5        FOR COMPARING
         TR    DUBLWD,EBTOHX            TO DATA IN
         PACK  DUBLWD(2),DUBLWD+5(3)    DISK FILE.
         MVC   HEXTERM,DUBLWD
D079     ST    TIOABAR,TWATIOA     SAVE ADDR OF ORIGINAL INPUT AREA.
         BAL   LINKREG,GETTIOA     SETUP NEW OUTPUT AREA WITH HDRS.
D080     MVC   FILREC,TWAREL
         READ  ECB1,DI,EMFIL1,(6),4096,0,FILREC
         CHECK ECB1
         B     D190    BRANCH AROUND I/O ERRRO RTNE
F1900    MVC   TIOADBAO(IOERRLTH),IOERRMSG
         MVC   TIOATDL,=AL2(IOERRLTH)
         UNPK  DUBLWD,TWAREL(4)         SETUP I/O ERROR MSG WITH
         TR    DUBLWD,HXTOEB            BLOCK NBR THAT
         MVC TIOADBAO+(IOBLOCK-IOERRMSG)(6),DUBLWD+1  WAS BEING READ,
         LR    R8,R0               DECB ADR IN R8
         USING DECB,R8
         UNPK  DUBLWD,EXCPBITS(3)       AND THE BDAM FILE
         DROP  R8
         TR    DUBLWD,HXTOEB            EXCEPTION RETURN CODE.
         MVC   TIOADBAO+(IOCODE-IOERRMSG)(4),DUBLWD+3
D170     CLOSE EMFIL1
         L     13,SAV3270R
         RETURN  (14,12)
D190     L     FIOABAR,TCAFCAA     POINT TO FILE I/O AREA.
         SR    DATALOOP,DATALOOP   SETUP TO LOOP ON NBR OF
         IC    DATALOOP,CTRLENTS   ENTRIES IN THIS CNTRL BLK.
         LTR   DATALOOP,DATALOOP   VERIFY THAT THE DATA SET
         BNZ   E030                IS NOT EMPTY.
         B     Z50
E030     LA    DATAREG,CTRLSLT1    POINT TO FIRST CTRL SLOT.
E040     OC    PARM4,PARM4         WAS A CTRL UNIT ADDR INPUT?
         BNZ   E110                YES. LINE ID IS CORRECT.
         XC    DUBLWD,DUBLWD       NO. THIS MUST BE RQST FOR LOCAL.
         MVC   DUBLWD(3),HXLINLIB  ROUND CUA ADDR DOWN
         NI    DUBLWD+2,B'11100000'     TO EVEN CHAN ADDR.
         CLC   DUBLWD(6),CTRLPORT       LOOK FOR EQUAL LINE ADDRESS.
         B     E120
E110     CLC   HXLINLIB,CTRLPORT   IS THIS SLOT = RQSTD LINE ADDR?
E120     BE    E200                YES. GO READ ITS DATA BLOCK.
         LA    DATAREG,SLOTLTH(DATAREG)  NO. BUMP TO NEXT CTRL SLOT.
         BCT   DATALOOP,E040            MORE SLOTS TO LOOK AT?
         OC    CTRLBACK,CTRLBACK        NO. IS THERE ANOTHER CTRL BLK?
         BZ    Z50                 NO. SEND 'NO ERRS' MSG.
         MVC   TWAREL,CTRLBACK+1        YES. SAVE NEXT BLOCK ADDR.
         B     D080
E200     MVC   TWAREL,CTRLFRST     MOVE DATA BLOCK ADDR.
         OC    TWAREL,TWAREL       IS THERE ANY DATA BLOCKS ?  @OZ31884
         BZ    T190                NO, WRITE 'NO DATA BLKS MSG'@OZ31884
F020     MVC   FILREC,TWAREL        ALIGN AND MKE RELOCATABLE
         READ  ECB2,DI,EMFIL1,(6),4096,0,FILREC
         CHECK ECB2
F050     L     FIOABAR,TCAFCAA     POINT TO DATA BLOCK.
         XC    TWASLOT,TWASLOT     INITIALIZE SLOT COUNT TO 1.
         LH    DATALOOP,BLKLTH     SETUP TO LOOP ON NBR BYTES IN REC.
         LA    DATAREG,DATASLT1    POINT TO FIRST DATA ITEM.
F080     DS    0H
         L     R15,TWASLOT         ADD 1 TO SLOT COUNT.
         LA    R15,1(R15)      ADD ONE TO REG
         ST    R15,TWASLOT
         CLI   ENTRYTYP,X'91'      IS THIS ENTRY AN MDR RECORD?
         BNE   H060                NO. TEST FURTHER.
         CLI   MDRTYPE,X'03'       YES. IS IT A 3270?
         BE    G060                YES. TEST FURTHER.
F120     SR    R1,R1               NO. BUMP
         IC    R1,0(DATAREG)     TO NEXT DATA ITEM.
         LTR   R1,R1               PRECENT ENDLESS LOOP
         BZ    F240                IN CASE GARBAGE IN RECORD.
         AR    DATAREG,R1
         SR    DATALOOP,R1         ALL DONE WITH THIS BLOCK?
         LTR   DATALOOP,DATALOOP
         BP    F080                NO. PROCESS NEXT ITEM.
         OC    DATAFWD,DATAFWD     YES. IS THERE ANOTHER BLOCK?
         BZ    F240                NO. GO WIND UP OUTPUT.
         MVC   TWAREL,DATAFWD      YES. GET CHAIN ADDR AND
         B     F020                GO READ NEXT BLOCK.
F240     CLI   OUTSWCH,X'FF'       WAS ANY OUTPUT CREATED?
         BNE   Z50                 NO. SEND 'NO ERRS' MSG.
G020     LA    1,TIOADBAO           YES. COMPUTE
         SR    OUTREG,1            TOTAL DATA LTH.
         STH   OUTREG,TIOATDL
         B     D170                GO TRANSMIT DISPLAY.
G060     CLC   MDRCTRL,HEXCTRL     IS THIS MDR FOR RQSTED CTRL UNIT?
         BNE   F120                NO. SKIP IT.
         CLC   MDRTERM,HEXTERM     YES. IS IT FOR REQUESTED TERML?
         BNE   F120                NO. SKIP IT.
         MVC   0(MDRLTH,OUTREG),MDRHDR   YES. SETUP BUILD 1 MDR LINE.
         UNPK  DUBLWD,MDRSTATS(3)
         TR    DUBLWD,HXTOEB       FILL IN REMOTE STATUS BYTES.
         MVC   (MDRSTAT-MDRHDR)(4,OUTREG),DUBLWD+3
G100     UNPK  DUBLWD,TWAREL(4)
         TR    DUBLWD,HXTOEB       FILL IN THIS BLK NBR.
         MVC   (MDRBBBSS-MDRHDR)(3,OUTREG),DUBLWD+4
         UNPK  DUBLWD,TWASLOT(5)
         TR    DUBLWD,HXTOEB       FILL IN THIS SLOT NBR.
         MVC   (MDRBBBSS+3-MDRHDR)(2,OUTREG),DUBLWD+5
         L     R14,TWAOUT          POINT TO OUTPUT BBBSS FIELDS
         CLC   (BBBSS-HDR3)(5,R14),=C'BBBSS' IS 'FIRST' FILLED IN?
         BNE   G200                YES,SKIP IT
         MVC   (BBBSS-HDR3)(5,R14),(MDRBBBSS-MDRHDR)(OUTREG) NO,DO IT.
         CLC   (BBBSS+10-HDR3)(5,R14),=C'BBBSS'  HOW ABOUT 'PREV'?
         BNE   G200                ALREADY THERE SKIP IT.
         MVC   (BBBSS+10-HDR3)(5,R14),(BBBSS-HDR3)(R14)  NO USE 'FIRST'
G200     MVC   (BBBSS+5-HDR3)(5,R14),(MDRBBBSS-MDRHDR)(OUTREG) FILL  XH
*                                                  IN 'LAST' BBBSS
         UNPK  DUBLWD,TIME
         MVC   (MDRHRS-MDRHDR)(2,OUTREG),DUBLWD+1   FILL IN HOURS
         MVC   (MDRMINS-MDRHDR)(2,OUTREG),DUBLWD+3     AND MINUTES.
G230     MVI   OUTSWCH,X'FF'       INDICATE SOME OUTPUT WAS CREATED.
         TIME    DEC          GET SYSTEM TIME
         STCM  0,15,DATTIME        STORE TIME
         STCM  1,15,DATDATE        STORE DATE
         CP    DATE,DATDATE        DID ERROR HAPPEN TODAY?
         BE    G240                YES,BR HIGH INTENSITY
         SP    DATDATE,=P'1'       MAKE DATE YESTERDAY
         CP    DATE,DATDATE        DID IT HAPPEN YESTERDAY
         BNE   G230A               NO,BR LEAVE INTENSITY NORMAL
         CLC   TIME,DATTIME        IS IT OLDER THAN 24 HRS?
         BNL   G240                NO,BR MAKE IT HIGH INTENSITY
G230A    LA    R1,LEAPTBL
G231     CLC   DATE+1(1),0(1)      SEE IF
         BE    G232                ERROR HAPPENED
         LA    R1,1(R1)            IN LEAP YEAR
         CLI   0(R1),X'FF'         IS IT END OF TABLE
         BNE   G231                NO,BR TRY NEXT YEAR
         ZAP   CALENDAR+8(2),=P'28' NOT LEAP YEAR
         B     G233                CONTINUE
G232     ZAP   CALENDAR+8(2),=P'29' YES,LEAP YEAR
G233     LA    R15,CALENDAR
G234     MVN   DATE+3(1),=X'0C'    MAKE SURE SIGN IS CORRECT
         CLC   DATE+2(2),3(R15)    COMPUTE MONTH
         BNH   G235                AND DAY FROM
         SP    DATE+2(2),3(2,R15)  DAY NUMBER
         LA    R15,5(R15)
         B     G234
G235     MVC   (MDRHRS-MDRHDR)(3,OUTREG),0(R15)  MOVE MONTH AND
         UNPK  (MDRMINS-MDRHDR)(2,OUTREG),DATE+2(2)   DAY TO OUTPUT
         OI    (MDRMINS+1-MDRHDR)(OUTREG),X'F0'
         B     H030
G240     MVI   1(OUTREG),PDA       YES.
         MVI   4(OUTREG),UHA
         MVI   15(OUTREG),PDA
H030     LA    OUTREG,MDRLTH(OUTREG)    BUMP TO NEXT OUTPUT SLOT.
         BCT   OUTLOOP,F120        MORE TIOA ROOM LEFT?
         B     G020                NO. GO WIND UP OUTPUT.
H060     CLI   ENTRYTYP,X'91'      IS THIS ENTRY AN OBR?
         BE    F120                NO. SKIP IT.
         CLC   OBRCUA,HEXLINE      YES. IS IT REQUESTED CUA ADDR?
         BNE   F120                NO. SKIP IT.
         CLI   OBRUCB,X'10'        IS THIS A LOCAL
         BE    H070                YES,BR
         CLC   OBRPOLL(1),HEXCTRL  IS THIS OBR FOR RQSTED CTRL UNIT?
         BNE   F120                NO,SKIP IT
         CLC   OBRPOLL+1(1),HEXTERM IS THIS OBR FOR RQSTED TERMINAL?
         BNE   F120                NO,SKIP IT
H070     MVC   0(MDRLTH,OUTREG),MDRHDR  YES. SETUP COMMON MDR/OBR HDR.
         UNPK  DUBLWD,OBRCSW+4(3)
         TR    DUBLWD,HXTOEB       FILL IN CSW STATUS
         MVC   (OBRSNS-MDRHDR)(4,OUTREG),DUBLWD+3
         UNPK  DUBLWD,OBRSENSE(3)                                    XH
         TR    DUBLWD,HXTOEB       FILL IN SENSE BYTES.
         MVC   (MDRSTAT-MDRHDR)(4,OUTREG),DUBLWD+3                   XH
         NI    OBRCCW+5,X'3F'      CLEAN UP TP OP CODE.
         UNPK  DUBLWD,OBRCCW+5(2)
         TR    DUBLWD,HXTOEB       FILL IN TP OP CODE.
         MVC   (OBRTPOP+1-MDRHDR)(2,OUTREG),DUBLWD+5
         MVI   (OBRTPOP-1-MDRHDR)(OUTREG),C'B'
         CLI   ENTRYTYP,TCAMOBR    IS THIS A TCAM OBR?
         BNE   J005                NO, LEAVE 'B' FOR BTAM
         MVI   (OBRTPOP-1-MDRHDR)(OUTREG),C'T'    T=TCAM
J005     UNPK  DUBLWD,OBRCCW(2)
         TR    DUBLWD,HXTOEB       FILL IN CHANL COMMAND.
         MVC   (OBRCMD-MDRHDR)(2,OUTREG),DUBLWD+5
         B     G100                GO FILL IN DATA COMMON TO MDR/OBR.
J010     CLC   TIOADBA+8(2),=AL2(L1P7)  IS SECOND FIELD LINE 1 POSN 7?
         BE    A010                YES. THIS IS NEW INPUT.
         CLC   TIOADBA+8(2),=AL2(L6P26) IS SECOND FIELD L2P26 FROM MENU
         BE    A010                YES,BR THIS IS NEW INPUT
         LA    R14,TIOADBA         SCAN THE INPUT TO SEE
J020     CLI   0(R14),C'%'         IF THE SPECIAL CHAR
         BE    J140                '%" IS PRESENT WHICH
         CLI   0(R14),X'00'        WAS PUT OUT BY THE BLOWUP
         BE    J050                ROUTINE TO INDICATE A
         LA    R14,1(R14)          ROUTINE FROM BLOWUP.
         B     J020
J050     CLC   PARM3(5),=C'BBBSS'  IF NO FIELDS WERE SELECTED, GO TO
         BE    S190                    INVALID INPUT REQUEST.
         CLC   PARM4(4),=C'PAGE'   IS THIS A 'PAGE' REQUEST?
         BNE   L160                NO. MUST BE 'BLOWUP' REQUEST.
         CLC   TIOFIRST,=C'BBBSS'  WAS A GOOD DISPLAY ON SCREEN?
         BE    S190                    NO. TRIED TO PAGE FROM NO-ERRS
         CP    TWASBAS,=P'4'       YES. IS IT RETURN FROM BLOWUP?
         CLC   19(2,R14),=X'C1D3'       PAGE REQUEST           @OZ30478
         BE    ALTBBB                   YES, POINT TO NEXT FLD @OZ30478
         CLC   19(2,R14),=X'C17B'       PAGE BKWRD LARGE SCREEN@OZ30478
         BE    ALTBBB                   YES, POINT TO NEXT FLD @OZ30478
         CLC   19(2,R14),=X'406B'       PAGE FRWRD SMALL SCREEN@OZ30478
         BE    ALTBBB                   YES, POINT TO NEXT FLD @OZ30478
         B     PTOK                     NO, POINTER IS OK      @OZ30478
ALTBBB   CLC   PARM5(7),=C'FORWARD'     IS IT PAGE FORWARD     @OZ30478
         BNE   J191                     NO, MUST BE BACKWARD   @OZ30478
         MVC   NEWFIRST,TIOLAST+4       OLD LAST TO NEW FIRST  @OZ30478
         MVC   NEWPREV,TIOFIRST+4       OLD FIRST TO NEW PREV  @OZ30478
         TR    TIOLAST+4,EBTOHX         TRANSLATE OLD LAST     @OZ30478