         PRINT OFF
         MACRO
&NAME    BNGHJN &LABEL,&HJN
         LCLC  &HJA,&HJB
&HJA     SETC  '&SYSPARM'(1,4)
&HJB     SETC  '&SYSPARM'(5,4)
         AIF   ('&LABEL' EQ '').NOBRNCH
         B     &LABEL .                 BR AROUND CONSTANTS
         SPACE 2
.NOBRNCH ANOP
         AIF   ('&NAME' EQ '').NOLABEL
         DC    C'&NAME' .              MODULE IDENTIFIER
.NOLABEL ANOP
         DC    X'&HJA' .                DATE OF MODIFICATION
         AIF   ('&HJN' NE 'HJN').DATE
         DC    X'&HJB' .                HJN OF MODIFICATION
.DATE    ANOP
         AIF   ('&LABEL' EQ '').NOLBL
         SPACE 2
&LABEL   DS    0H
.NOLBL   ANOP
         MEND
         PRINT ON
***********************************************************************
*                                                                     *
* MODULE NAME = BNGTDISP                                              *
*                                                                     *
* DESCRIPTIVE NAME = TCAM DEMF DISPLAY CONTROL MODULE                 *
*                                                                     *
* COPYRIGHT = NONE                                                    *
*                                                                     *
* STATUS = RELEASE 1, LEVEL 1                                         *
*                                                                     *
* FUNCTION = 1) EDITS THE INPUT INTO 6 PARM FIELDS WITH LEFT JUSTIFY; *
*            2) DOES SYNTAX CHECK ON DEMF COMMANDS AND PARAMETERS;    *
*            3) DETERMINES WHETHER THE REQUEST IS FOR MENU,REMOTE,    *
*               LOCAL OR 3270 SCREEN ERROR DISPLAY AND PASSES CONTROL *
*               TO BNGTMENU,BNGTRMOT,BNGTLOCL OR BNGT3270 SEGMENT     *
*               ACCORDINGLY WITH PARAMETERS;                          *
*            4) HANDLES ALL,LINE AND CTRL ERROR DISPLAY REQUEST AND   *
*               WRITES ITS ERROR INFORMATION TO THE 3270 DISPLAY      *
*               TERMINAL AND ISSUES SOME OF THE DISPLAY MESSAGES;     *
*            5) ACCESSES SYS1.DEMFLOG DATA FILE FOR ALL,LINE AND CTRL *
*               ERROR DISPLAY REQUEST.                                *
*                                                                     *
* NOTES = NONE                                                        *
*                                                                     *
*    DEPENDENCIES = NONE                                              *
*                                                                     *
*    RESTRICTIONS = NONE                                              *
*                                                                     *
*    REGISTER CONVENTIONS = R10 RECEIVES ADDRESS OF I/O MESSAGE AREA  *
*                           FROM BNGTQEMF                             *
*                                                                     *
*    PATCH LABEL = NONE                                               *
*                                                                     *
* MODULE TYPE = TCAM DISPLAY CONTROL                                  *
*                                                                     *
*    PROCESSOR = ASSEMBLER H                                          *
*                                                                     *
*    MODULE SIZE = 9821 DECIMAL BYTES                                 *
*                                                                     *
*    ATTRIBUTES = SERIALLY REUSABLE                                   *
*                                                                     *
* ENTRY POINT = BNGTDISP                                              *
*                                                                     *
*    PURPOSE = SEE FUNCTION                                           *
*                                                                     *
*    LINKAGE = R1  LOADED WITH THE PARAM LIST POINTER                 *
*              R14 LOADED WITH THE RETURN ADDR (USED BY SUBROUTINE)   *
*              R15 LOADED WITH ENTRY POINT                            *
*                                                                     *
* INPUT = PARAM LIST ITEMS USED ARE :                                 *
*         IN MESSAGE ADDRESS  = TCAMFLDS (R10)                        *
*         IN MESSAGE COUNT    = VARIABLE (MAXIMUM=117 BYTES)          *
*                                                                     *
* OUTPUT = PARAM LIST ITEMS USED ARE :                                *
*         OUT MESSAGE ADDRESS = TIOADBAO (R10)                        *
*         OUT MESSAGE COUNT   = VARIABLE (MAXIMUM=2008 BYTES)         *
*                                                                     *
* EXIT-NORMAL = REGISTER 15 RETURN CODE RETURNED TO CALLER :          *
*               00 - OPERATION PERFORMED AS REQUESTED                 *
*                                                                     *
* EXIT-ERROR  = SYNAD ROUTINE AT LABEL - F190                         *
*                                                                     *
* EXTERNAL REFERENCE = BNGTLOCL,BNGTRMOT,BNGTMENU AND BNGT3270        *
*                                                                     *
*    ROUTINES = LOCATE ROUTINE                                        *
*               MOD1SCAN ROUTINE                                      *
*               MOD1 TABLE BUILD (AT LABEL S215) ROUTINE              *
*                                                                     *
*    DATA AREAS = SEE INPUT AND OUTPUT ABOVE                          *
*                                                                     *
*    CONTROL BLOCK = DCB (AT LABEL EMFILE)                            *
*                                                                     *
* TABLES = TABLE    - FUNCTION/COMPANION TABLE                        *
*          MOD1TAB  - 3277 MODEL 1 TABLE                              *
*          HXTOEB   - HEX CHARS TO EBCDIC CHARS TABLE                 *
*          EBTOHX   - EBCDIC CHARS TO HEX CHARS TABLE                 *
*          LOTOUP   - LOWER TO UPPER CASE CHARS TABLE                 *
*                                                                     *
* MACROS = LINK, SAVE, RETURN, OPEN, READ, CHECK, CLOSE               *
*                                                                     *
* CHANGE ACTIVITIES AS FOLLOWS:                                       *
* CHANGE 01  11/15/77  PROLOGUE ADDED                                 *
* CHANGE 02  02/22/78  BNGHJN MACRO ADDED                             *
*A091000                                                       @OZ30479
*D097500                                                       @OZ30479
*C152500,157000-159000                                         @OZ30479
*C477500                                                       @OZ30478
*C097000                                                       @OZ30675
*A490500                                                       @OZ31880
*D411500-412500                                                @OZ31877
*C414000-414500,506500-507000,554000-555000,556500-560000      @OZ31877
*C561500-564000                                                @OZ31877
*A369500,613000,636500                                         @OZ31884
*                                                                     *
***********************************************************************
  TITLE 'DISPLAY AUDITS INPUT AND DISPLAYS ALL LINES,LINE, CTRL'
TCAMFLDS DSECT
         USING *,10
TIOATDL  DC    X'0000'      TERMINAL DATA LENGTH
TCTTETT  DS    CL1    91=REMOTE  99=LOCAL 3270
TCTTETM  DS    CL1      F1= MODEL 1  F2=MODEL 2 3270
TCTTEGU  DS    0H
TCTTELRN DS CL3     LINE ADDRESS REL LINE #
TCTTETA  DS    CL1      CONTROL UNIT ADDRESS
         DS    CL1     TERMINAL ADDRESS REMOTE
TIOADBA  DS    CL100          TERMINAL INPUT AREA
TCTTETI  DS CL8      TCAM SYMBOLIC ADDRESS
TIOWCC   DS    CL1        C2 CHARACTER FULL SCREEN WRTIE
TIOADBAO DS    CL2000    TERMINAL OUTPUT AREA
DECB     DSECT                     USED IN FILE I/O ERROR ROUTINE
         DS    CL1
EXCPBITS DS    CL2                 ADR OD EXCP BITS PLACED BY SUPVR
         DS    CL1
SLOTS    DSECT           MAP OF ENTRIES IN CONTROL BLOCK
         USING SLOTS,DATAREG
SLOTLINE DS    CL6                CHANNEL ADDRESS(PORT OR LIB)
SLOTNBC  DS    CL2                NUMBER OF BLOCKS IN THIS CHAIN
SLOTHITS DS    CL2                TOTAL HITS ON THIS LINE
SLOTRFB  DS    CL3                RELATIVE ADDRESS FIRST BLOCK IN CHAIN
SLOTRLB  DS    CL3                RELATIVE ADDRESS LAST BLOCK IN CHAIN
SLOTLTH  EQU   *-SLOTS
         ORG   SLOTS         MAP OF MDR AND OBR IN DETAIL BLOCKS
DATALTH  DS    C                   LTH OF THIS SLOT
LINEIDA  DS    CL6                 LINE AND LIB ADDR
ENTRYTYP DS    C                   ENTRY TYPE - MDR OR OBR
         DS    CL3
MDRTYPE  DS    C                   TYPE HDWE - 03 EQUALS 3270
         DS    CL3
DATE     DS    CL4                 DATE OF ERROR - 00YY0DDF
TIME     DS    CL4                 TIME OF ERROR - HHMMSSHH
         DS    CL8
MDRCUA   DS    CL2                 MDR CHAN & UNIT ADDR
MDRCTRL  DS    C                   MDR CTRL UNIT POLL ADDR
MDRTERM  DS    C                   MDR TERMIL POLL ADDR
MDRSTATS DS    CL2                 REMOTE 3270 STATUS
         DS    CL2
OBRCCW   DS    CL8                 LAST CCW EXECUTED
OBRCSW   DS    CL8                 CHANNEL STATUS WORD
         DS    CL6
OBRUCB   DS    C
         DS    CL3
OBRCUA   DS    CL2                 OBR CHAN & UNIT ADDR
OBRCTRL  DS    C
OBRTERM  DS    C
         DS    CL12
OBRSENSE DS    CL2                 OBR SENSE BYTES
***********************************************************************
SBA      EQU   X'11'          SET BUFFER ADDRESS
SF       EQU   X'1D'          START FIELD
IC       EQU   X'13'          INSERT CURSOR
UNA      EQU   X'40'          UNPROTECTED,NORMAL INTENSITY, ALPHAMERIC
UMN      EQU   X'41'               UNPROT,NORMAL,MODIFIED
PNA      EQU   X'60'          PROTECTED, NORMAL INTENSITY, ALPHAMERIC
PHA      EQU   X'E8'              PROTECTED, HIGH INTENSITY, ALPHAMERIC
MNP      EQU   X'61'               PROT,MODIFIED,NORMAL
PIA      EQU   X'6D'               PROTECTED,MODIFIED,INVISIBLE,ALPHA
L1P1     EQU   X'4040'        LINE 1, POSITION 1  BUFFER ADDRESS.
L1P7     EQU   X'40C6'        LINE 1, POSITION 7  BUFFER ADDRESS.
L1P36    EQU   X'40E3'        LINE 1, POSITION 36 BUFFER ADDRESS.
L2P1     EQU   X'C150'        LINE 2, POSITION 1  BUFFER ADDRESS.
L2P4     EQU   X'C1D3'
L2P44    EQU   X'C17B'
L3P1     EQU   X'C260'
L3P4     EQU   X'C1D3'
L4P1     EQU   X'C3F0'       LINE 4, POSITION 1  BUFFER ADDRESS.
L4P4     EQU   X'C17B'
L6P26    EQU   X'C6E9'       LINE 6 POS 26 BUFFER ADDRESS
R0       EQU   0             USED IN FILE I/O ERROR ROUTINE
R1       EQU   1
REG1     EQU   1
BASE1    EQU   3             BASE REGISTER ONE = 0-4095
BASE2    EQU   4             BASE REGISTER TWO = 4096-8191
BASE3    EQU    12           BASE REGISTER THREE 8192 - 12287
TIOABAR  EQU   5             POINTS TO TIOA
MOD1REG  EQU   5             POINTS TO MOD-1 TABLE (MOD1TABL)
FIOABAR  EQU   6             POINTS TO FIOA
PARMREG  EQU   6             POINTS TO PARM AREA
OUTREG   EQU   7             POINTS TO DATA IN TIOA AREA
OUTLOOP  EQU   8             USED FOR LOOPING THRU DATA IN TIOA AREA
R8       EQU   8             USED IN FILE I/O ERROR ROUTINE
DATAREG  EQU   9             POINTS TO DATA IN FIOA AREA
DATALOOP EQU   2             USED FOR LOOPING THRU DATA IN FIOA AREA
TABLEREG EQU   11                 POINTS TO FUNCTION/COMPANION TABLE
LINKREG  EQU   11                 SUBROUTINE LINKAGE
R11      EQU   11
R13      EQU   13
R14      EQU   14
R15      EQU   15
***********************************************************************
BNGTDISP CSECT
         SAVE  (14,12)             SAVE CALLERS REGS
         BALR  BASE1,0             ADDRESS ABILITY
         USING *,BASE1,BASE2,BASE3
BNGTDISP BNGHJN SKIPID                                         @OZ30479
         ST     R13,SAVREG      SAVE CALLERS SAVE REG
         LA    R13,SAVAREA
         LA    BASE2,2048(BASE1)
         LA    BASE2,2048(BASE2)
         LA    BASE3,2048(BASE2)
         LA    BASE3,2048(BASE3)
         LA    TIOABAR,TIOADBA       LOAD ADDRESS OF INPUT AREA
         ST    TIOABAR,TCTTEDA       SAVE INPUT AREA ADDRESS
         LA    FIOABAR,FIOADBA       LOAD ADDRESS OF FILE AREA
         ST    R14,TCAFCAAA        STORE RETURN ADDRESS IN  THIS FIELD
         ST    FIOABAR,TCAFCAA
         LA    BASE1,EMFILE             POINT R3 TO EMFILE     @OZ30675
         B     PROGSTRT                                        @OZ30675
         DROP  BASE1                                           @OZ30675
***************************************************************@OZ30675
* NOTE: ANY CHANGE BETWEEN THIS POINT AND LABLE 'PROGSTRT'     @OZ30675
*      REQUIRES A LIKE CHANGE TO BNGTDISP DSECT IN BNGT3270,   @OZ30675
*      BNGTMENU, BNGTLOCL, AND IN BNGTRMOT.                    @OZ30675
***************************************************************@OZ30675
         USING EMFILE,BASE1                                    @OZ30675
EMFILE DCB DDNAME=EMFILE,DSORG=DA,MACRF=(RIC),OPTCD=R,                 X
               RECFM=F,SYNAD=F190
SAVREG   DS    A                   RETURN SAVE AREA ADDRESS
SAVAREA  DS    18F                 DEMFDISP SAVE AREA
TCAFCAAA DS    A                   TCAM RETURN ADDRESS
TCTTEDA  DS    A                   ADDRESS OF PASSED FIELD
TCAPCPI  DC    CL8'00'        SYMBOLIC PROGRAM NAME TO LINK TO
TCAFCAA  DS    A                   FILE I/O AREA
         DS    0H
* INSERT PARM1 AND OTHER DC'S HERE
PARM1    DS    D                   1ST INPUT PARM - DEMF
PARM2    DS    D                   2ND INPUT PARM - ALL/LINE/CTRL/
*                                       TERM   24230000
PARM3    DS    D                   3RD INPUT PARM
PARM4    DS    D                   4TH INPUT PARM
PARM5    DS    D                   5TH INPUT PARM
PARM6    DS    D                   6TH INPUT PARM
SBACNT   DS    PL1                 COUNT OF SBA'S IN INPUT
RELREC   DS    CL3                 BDAM RELATIVE BLOCK ADDRESS
SVRELREC DS    CL3           SAVE AREA FOR LINE/CTRL RELATIVE BLOCK NO.
DBLWD    DS    D                   DOUBLEWORD WORK AREA
DUBLWD   EQU   DBLWD
FULLWD   DS    F                   FULLWORD WORK AREA
TWALINE  DS     F          SAVE AREA FOR TCAM SYMBOLIC LINE POINTER
*   THE TWA FROM HERE UP MUST REMAIN IN THAT ORDER TO MATCH TWALINE
*         WITH TWATCTID IN THE 3270 PROGRAM.
LINEID   DS    XL6                 HARDWARE LINE ADDRESS
LINENAME DS    CL8           LINE NAME SAVE AREA FOR RECAP HEADER
CTRLID   DS    X                   HARDWARE CONTROL UNIT ADDRESS
CTRLNAME DS    CL8           CTRL/CLUSTER NAME WORK AREA FOR OUTPUT
TERMNAME DS    CL8                 TERML/LOGICAL UNIT NAME WORK AREA
CLUSNAME DS    CL8           CTRL/CLUSTER NAME SAVE AREA FOR RECAP HDR.
NEWPARM  DS    C                   NEW-PARM SWITCH
CTRPARM  DS    C                   COUNTER OF CHARACTERS IN PARM(X)
SAVETIOA DS    F                   SAVE AREA FOR ORIGINAL TIOA
SAVEBBSS DS    F                   SAVE POINTER TO BLK AND SLOT
TWASLOT  DS    C                   INPUT SLOT COUNT IN HEX
*                                  DISPLACEMENTS IN TIOA
SAVERCAP DS    F                   SAVEAREA FOR POINTER TO RECAP LINE
SAVEITEM DS    F                   SAVEAREA FOR POINTER TO FIRST LINE
*                                  AND CTRL DISPLAYS
SLOTCNT  DS    C                   COUNT OF DETAIL SLOTS READ
ITEMCNT  DS    PL2                 COUNT OF OUTPUT ITEMS IN LINE
WORKCNT  DS    PL2                 ITEM WORK COUNTER
WORK15   DS    CL15
QUITSW   DS    C             USED TO STOP EDIT OF INPUT ON 3RD SBA
*                             IF 2ND SBA = L1P7 OR L6P26  ***ALSO*** XH
*                            USED AS MOD-1 OUTPUT-FULL-SWITCH        XH
*                               00 = NOT FULL   FF = OUTPUT FULL BUT XH
*             CONTINUE SCANNINGDATABASEFOR CORRECT ERROR COUNTSXH
         DC    C'FILE I/O AREA'
         CNOP  0,4
         USING *,FIOABAR
DFHFIOA  DS    0H      FILE I/O AREA ADDRESS
FIOADBA  DC    4096X'00'             FILE INPUT AREA
ENDDATA  DC    X'FFFFFFFF'         MARK END OF FILE RECORD
         ORG FIOADBA
CTRLLAST DS    F                   LAST USED ADDR IN DATASET
CTRLTOTL DS    F                   TOTAL BLOCKS IN DATASET
CTRLBACK DS    F                   BACKWARD PTR IN CTRL BLK CHAIN
CTRLFWD  DS    F                   FORWARD PTR IN CTRL BLK CHAIN
CTRLENTS DS    C                   NBR ENTRIES IN THIS CTRL BLK
         DS    CL15                FOR FUTURE USE
CTRLSLT1 DS    0C                  START OF CTRL SLOT NBR ONE.
         ORG   FIOADBA
DATAPORT DS    CL6                 PORT & LIB ADDR
DATATIME DS    CL4                 TIME BLOCK CREATED
DATADATE DS    CL4                 DATE BLOCK CREATED
DATAFWD  DS    CL3                 FORWARD CHAIN ADDR
DATABACK DS    CL3                 BACKWAD CHAIN ADDR
BLKLTH   DS    CL2                 NBR BYTES USED IN THIS BLOCK
         DS    CL10
DATASLT1 DS    0C                  START OF 1ST DATA SLOT
         ORG   ENDDATA+8
PROGSTRT EQU    *
         L     TIOABAR,TCTTEDA
         ZAP   SBACNT,=P'0'        SET SBA COUNTER TO ZERO.
         TR    TIOADBA(80),LOTOUP  TRANSLATE LOWER CASE TO UPPER CASE.
         LA    DATAREG,TIOADBA      POINT TO 1ST BYTE IN TIOA.
         LR    DATALOOP,DATAREG    SETUP DATA LOOP
         AH    DATALOOP,TIOATDL    DATALOOP = INPUT END POINTER
         LA    PARMREG,PARM1       POINT TO PARMS.
         XC    PARM1(48),PARM1     ZERO OUT PARM FIELDS
         LR    R14,PARMREG
         MVI   QUITSW,X'00'        INIT QUITSW = 00
         MVI   NEWPARM,C'1'        TURN ON 'NEW PARM' SWITCH.
         MVI   CTRPARM,X'00'       INIT PARM COUNTER = ZERO
A160     CLI   0(DATAREG),SBA      IS THIS BYTE AN SBA?
         BNE   A210                NO. CHECK IT FURTHER.
         CLI   QUITSW,X'FF'            QUIT SWITCH ON?
         BE    C10                          YES.  QUIT EDIT.
         CLC   1(2,DATAREG),=AL2(L1P7)  IS 2ND SBA = LINE 1 POSN 7
         BE    A170                NO,CONTINUE EDIT
         CLC   1(2,DATAREG),=AL2(L6P26) IS 2ND SBA = LINE 6 POS 26
         BNE   A180                              NO. CONTINUE EDIT
A170     MVI   QUITSW,X'FF'        TURN QUIT SWITCH ON
A180     AP    SBACNT,=P'1'        YES. ADD TO TO SBA COUNTER.
         LA    DATAREG,2(DATAREG)  BUMP TIOA POINTER BY 2.
         B     B80
A210     CLI   0(DATAREG),C'A'     IS IT AN 'A' OR HIGHER?
         BL    B80                 NO. CHECK NEW PARM SWITCH.
         CLI   NEWPARM,C'1'        IS FIRST CHAR FOR PARM(X)?
         BNE   B10                 NO.
         MVI   NEWPARM,C'0'        YES. SET FIRST CHAR IN FOR PARM
         MVI   CTRPARM,X'00'       SET PARM CHAR CTR = 0
B10      IC    R11,CTRPARM         LOAD R11 = CTRPARM
         LA    R11,1(R11)          ADD CTRPARM = CTRPARM + 1
         STC   R11,CTRPARM         STORE NEW CTR BACK CTRPARM
         CLI   CTRPARM,X'08'       IS CHAR COUNT IN PARM OVER 8 ?
         BH    B50                 YES.                        @OZ30479
         MVC   0(1,14),0(DATAREG)  PUT THIS BYTE IN THIS PARM
         CLI   PARM6+7,X'00'       ARE ALL PARMS USED UP?
         BNE   C10                 YES. GOTO SYNTAX CHECKING ROUTINE
         LA    14,1(14)            BUMP PARM POINTER WORKREG.
B40      LA    DATAREG,1(DATAREG)  BUMP TIOA POINTER.
         CR    DATAREG,DATALOOP    IS THERE MORE DATA IN TIOA?
         BL    A160                YES. GO PROCESS MORE DATA.
         B     C10                 NO. GOTO SYNTAX CHECKING ROUTINE
B50      CLC   PARM2(5),=X'F3F2F7F000'  IS THIS 3270 INPUT ?   @OZ30479
         BNE   B40                      NO.                    @OZ30479
         CP    SBACNT,=P'2'        IS THIS NON-XED INPUT ?     @OZ30479
         BH    B40                 NO.                         @OZ30479
         B     Z40                 SEND INVALID SYNTAX MSG.    @OZ30479
B80      CLI   NEWPARM,C'1'        IS NEW-PARM SWITCH ON?
         BE    B40                 YES. CHECK FOR MORE DATA.
         CLI   PARM6,X'00'         NO. ARE ALL PARMS USED UP?
         BNE   C10                 YES. GOTO SYNTAX CHECKING ROUTINE
         LA    PARMREG,8(PARMREG)  NO. BUMP TO NEXT NEW PARM.
         LR    14,PARMREG          POINT WORK REG TO NEXT PARM.
         MVI   NEWPARM,C'1'        TURN ON NEW-PARM SWICH.
         B     B40                 GO CHECK FOR MORE DATA.
***********************************************************************
*                                                                     *
*        SYNTAX CHECKING ROUTINE                                      *
*                                                                     *
***********************************************************************
C10      CLI   QUITSW,X'FF'            IS SBA QUIT SWT ON ?
         BE    C15                     YES. DATA ENTERED FROM 29 AREA
         CP    SBACNT,=P'1'            NO. IS SBACNT > 1 ?
         BH    CC10                    YES. BYPASS SYNTAX CHECK
         CLI   PARM2,X'00'             IS PARM2 BLANK ?
         BE    D80                     YES. GOTO BNGTMENU
C15      CLC   PARM2(5),=X'D4C5D5E400' IS PARM2=MENU ?
         BNE   C20                     NO
         CLI   PARM3,X'00'             IS PARM3 = 00 ?
         BE    D80                     YES. GOTO BNGTMENU
         B     Z40                     NO. GO ISSUE INVALID FORMAT MSG
C20      CLC   PARM2(4),=X'C1D3D300'   IS PARM2 = ALL ?
         BNE   C30                     NO
         CLI   PARM3,X'00'             IS PARM3 = 00 ?
         BE    CC10                    YES.GO SCHEDULE APPROPRIATE PGM
         B     Z40                     NO. GO ISSUE INVALID FORMAT MSG
C30      CLC   PARM2(6),=X'D3D6C3C1D300'  IS PARM2 = LOCAL ?
         BNE   C40                        NO
         CLI   PARM3,X'00'             IS PARM3 = 00 ?
         BE    CC10                    YES.GO SCHEDULE APPROPRIATE PGM
         CLC   PARM3+1(2),=C'SS'       IS LOCAL/REMOTE SCREEN ?
         BE    CC10                    YES.
         B     Z40                     NO. GO ISSUE INVALID FORMAT MSG
C40      CLC   PARM2(6),=X'D9C5D4D6E3C5' IS PARM2 = REMOTE ?
         BNE   C50                     NO.
         CLC   PARM2+7(1),=C'S'        IS REMOTE SCREEN ?
         BE    C45                     YES.
         CLI   PARM2+6,X'00'           IS REMOTE SYNTAX ERROR ?
         BNE   Z40                     YES. GO ISSUE INVALID FORMAT MSG
         CLI   PARM3,X'00'             IS PARM3 = 00 ?
         BE    CC10                    YES.GO SCHEDULE APPROPRIATE PGM
         B     Z40                     NO. GO ISSUE INVALID FORMAT MSG
C45      CLI   PARM3,X'00'             IS REMOTE SCREEN ?
         BNE   CC10                    YES.
         B     Z40                     NO. GO ISSUE INVALID FORMAT MSG
C50      CLC   PARM2(5),=X'D3C9D5C500' IS PARM2 = LINE ?
         BNE   C60                     NO
         CLI   PARM4,X'00'             IS PARM4 = 00 ?
         BNE   Z40                     NO. GO ISSUE INVALID FORMAT MSG
C55      CLI   PARM3+3,X'00'           LINE ADDR = 4 OR MORE ?
         BNE   Z40                     YES.
         CLI   PARM3+2,X'00'           LINE ADDR = 2 OR LESS ?
         BE    Z40                     YES.
         LA    DATALOOP,3              SET FOR SCAN 3 CHARS
         LA    DATAREG,PARM3           SET DATAREG = PARM3 PTR
C57      CLI   0(DATAREG),X'F0'        IS BYTE(PARM3) >= C'0' ?
         BNL   C59                     YES. IT IS NUMERIC
         CLI   0(DATAREG),X'C6'        IS BYTE(PARM3) > C'F' ?
         BH    Z40                     YES. IT IS INVALID FORMAT
C59      LA    DATAREG,1(DATAREG)      BUMP TO NEXT BYTE OF PARM3
         BCT   DATALOOP,C57            LOOP
         B     CC10                    NO. GO SCHEDULE APPROPRIATE PGM
C60      CLC   PARM2(5),=X'C3E3D9D300' IS PARM2 = CTRL ?
         BNE   C70                     NO
         CLI   PARM5,X'00'             IS PARM5 = 00 ?
         BNE   Z40                     NO.
         CLI   PARM4,X'00'             IS PARM4 = 00 ?
         BE    C55                     YES.
C65      CLI   PARM4+2,X'00'           CTRL ADDR = 3 OR MORE ?
         BNE   Z40                     YES.
         CLI   PARM4+1,X'00'           CTRL ADDR = 1 OR LESS ?
         BE    Z40                     YES.
C66      LA    DATALOOP,2              SET FOR SCAN 2 CHARS
         LA    DATAREG,PARM4           SET DATAREG = PARM4 PTR
C67      CLI   0(DATAREG),X'F0'        IS BYTE(PARM3) >= C'0' ?
         BNL   C69                     YES. IT IS NUMERIC
         CLI   0(DATAREG),X'C6'        IS BYTE(PARM3) > C'F' ?
         BH    Z40                     YES. IT IS INVALID FORMAT
C69      LA    DATAREG,1(DATAREG)      BUMP TO NEXT BYTE OF PARM3
         BCT   DATALOOP,C67            LOOP
         B     C55                     NO. GO CHECK LINE ADDR (PARM3)
C70      CLC   PARM2(5),=X'F3F2F7F000' IS PARM2 = 3270 ?
         BNE   Z40                     NO.
         CLI   PARM6,X'00'             IS PARM6 = 00 ?
         BNE   Z40                     NO.
         CLI   PARM5,X'00'             IS PARM5 = 00 ?
         BE    C75                     YES.
         CLI   PARM5+2,X'00'           IS TERMINAL ADDR = 3 OR MORE ?
         BNE   Z40                     YES.
         CLI   PARM5+1,X'00'           IS TERMINAL ADDR = 1 OR LESS ?
         BE    Z40                     YES.
         LA    DATALOOP,2              SET FOR SCAN 2 CHARS
         LA    DATAREG,PARM5           SET DATAREG = PARM5 PTR
C72      CLI   0(DATAREG),X'F0'        IS BYTE(PARM3) >= C'0' ?
         BNL   C74                     YES. IT IS NUMERIC
         CLI   0(DATAREG),X'C6'        IS BYTE(PARM3) > C'F' ?
         BH    Z40                     YES. IT IS INVALID FORMAT
C74      LA    DATAREG,1(DATAREG)      BUMP TO NEXT BYTE OF PARM3
         BCT   DATALOOP,C72            LOOP
         B     C65                     NO. GO CHK LINE AND CTRL
C75      CLI   PARM4,X'00'             IS PARM4 = 00 ?
         BNE   Z40                     NO.
         CLI   PARM3,X'00'             IS PARM3 = 00 ?
         BE    D10                     YES. BRANCH TO BNGT3270
         CLI   PARM3+3,X'00'           IS TERM/LINE = 4 OR MORE ?
         BNE   Z70                     YES. GO ISSUE SYMBOLIC ERR MSG
         CLI   PARM3+2,X'00'           IS TERM/LINE = 2 OR LESS ?
         BE    Z70                     YES. GO ISSUE SYMBOLIC ERR MSG
         LA    DATALOOP,3              SET FOR SCAN 3 CHARS
         LA    DATAREG,PARM3           SET DATAREG = PARM3 PTR
C77      CLI   0(DATAREG),X'F0'        IS BYTE(PARM3) >= C'0' ?
         BNL   C79                     YES. IT IS NUMERIC
         CLI   0(DATAREG),X'C6'        IS BYTE(PARM3) > C'F' ?
         BH    Z70                     YES. IT IS SYMBOLIC ERROR
C79      LA    DATAREG,1(DATAREG)      BUMP TO NEXT BYTE OF PARM3
         BCT   DATALOOP,C77            LOOP
*        B     CC10                    NO SYMBOLIC ERROR FOUND
***********************************************************************
*                                                                     *
*        AT THIS POINT UP TO 5 PARMS HAVE BEEN EDITED AND             *
*        ARE LEFT JUSTIFIED WITH TRAILING X'00'S                      *
*                                                                     *
***********************************************************************
CC10     CP    SBACNT,=P'3'        CNT OF SBA LESS THAN THREE
         BL    D10                 YES,THIS IS INIT ENTRY
***********************************************************************
*                                                                     *
*        ENTRY IS FROM A FORMATTED SCREEN. THEREFORE,                 *
*        THIS SECTION TRANSFERS CONTROL TO APPROPRIATE                *
*        COMPANION PROGRAM.                                           *
*                                                                     *
***********************************************************************
         CLC   PARM2(4),=C'MENU'   IS THIS MENU SCREEN ?
         BE    D32                 YES. GO CHECK MENU PARAMETERS
         CLI   TIOADBA+35,C'%'     IS THIS FROM BITS PROMPTER SCR ?  XH
         BE    C190                YES. GOTO BNGT3270                XH
         CLI   PARM4,X'00'         IS PARM4 BLANK ?
         BE    D80                 YES. USER DID NOT X ANY ENTRIES
         CLC   TIOADBA+15(2),=X'C1D3'   IS THIS A PAGE FORWARD-LG    XH
*                                            OR A PAGE BACKWARD-SM?  XH
         BNE   CC40                YES.                              XH
         CLI   TCTTETM,X'F1'       IS THIS A 3277-1?                 XH
         BE    CC60                YES. DO PAGE BACKWARD-SM.         XH
         B     CC50                NO. DO PAGE FORWARD-LG.           XH
CC40     CLC   TIOADBA+15(2),=X'C17B'   IS THIS A PAGE BACKWRD-LG?   XH
         BE    CC60                YES.                              XH
         CLC   TIOADBA+15(2),=X'406B'   IS THIS A PAGE FORWARD-SM?   XH
         BNE   C109                NO. MUST BE BLOWUP REQUEST        XH
CC50     MVC   PARM4(4),=C'PAGE'    SET UP PARMS FOR PAGING          XH
         MVC   PARM5(7),=C'FORWARD'     FORWARD.                     XH
         B     D10                  GO TO APPROPRIATE PGM.           XH
CC60     MVC   PARM4(4),=C'PAGE'    SET UP PARMS FOR PAGING          XH
         MVC   PARM5(7),=C'BACKWRD'     BACKWARD.                    XH
         B     D10                  GO TO APPROPRIATE PGM.           XH
C109     LA    TABLEREG,TABLE      POINT AT FUNCT/COMP TABLE
C110     CLC   0(4,TABLEREG),PARM2  PROGRAM NAME IN TABLE