         MACRO
&NAME    DBV   &Z
         LCLA  &I,&J,&K,&M
         LCLC  &B(7)
.*
.*             CHANGES TO RELEASE 3
.*             CHANGES TO RELEASE 2
.*             CHANGES TO RELEASE 1
.*
.* DEFINES BYTE VALUES THROUGH THE USE OF
.* EQUATES AND DS 0X
.*
         AIF   ('&NAME' EQ '').I1
&NAME    DS    0X
.I1      AIF   (&M EQ 0).M1
&B(&M+1) SETC  ''
&M       SETA  &M-1
         AGO   .I1
.M1      ANOP
&B(&M+1) SETC  '0'
&K       SETA  0
&I       SETA  &I+1
         AIF   (K'&SYSLIST(&I) EQ 0).D1
&J       SETA  K'&SYSLIST(&I)+1
.L1      ANOP
&J       SETA  &J-1
         AIF   ('&SYSLIST(&I)'(&J,1) NE ')').S1
&K       SETA  &K+1
.S1      AIF   ('&SYSLIST(&I)'(&J,1) NE '(').S2
&K       SETA  &K-1
.S2      AIF   (&K EQ 0).S3
         AIF   (&K GT 0 AND &J GT 1).L1
.ERR     MNOTE 8,'INVALID PARAMETER SYNTAX IN OPERAND &I.'
         AGO   .D1
.S4      ANOP
&B(&M+1) SETC  '&SYSLIST(&I)'(&J+1+&M*8,8)
&M       SETA  &M+1
.S3      AIF   (K'&SYSLIST(&I)-&M*8-&J GT 9).S4
         AIF   (&J EQ K'&SYSLIST(&I)).S5
&B(&M+1) SETC  '&SYSLIST(&I)'(&J+1+&M*8,K'&SYSLIST(&I)-&M*8-&J-1)
.S5      AIF   (&J EQ 1 OR &J GT 8).ERR
&B(7)    SETC  '&SYSLIST(&I)'(1,&J-1)
&B(7)    EQU   &B(1)&B(2)&B(3)&B(4)&B(5)&B(6)
V&B(7)   DS    0X
.D1      AIF   (&I LT N'&SYSLIST).I1
         DS    1X
.MEND    MEND
