         MACRO
&NAME    JPUTM &FILE=,&ADDR=
.*       GENERATES A CALL TO THE WORKFILE I/O MODULE TO COPY A RECORD
.*       INTO THE OUTPUT BUFFER.
         AIF   (K'&FILE EQ 0 OR K'&ADDR EQ 0).ERR1
&NAME    JINST LA,R10,&FILE,FILE
         JINST LA,R11,&ADDR
         L     R12,JMLC                 LOAD BASE
         BAL   R9,JPUTM(,R12)           GO TO JPUTL
         MEXIT
.ERR1    MNOTE 8,'PARAMETER ERROR.'
         MEND
