         MACRO
&NAME    JRETURN
.*       RESTORES THE REGISTERS OF THE CALLING PROGRAM FROM A PUSH
.*       DOWN SAVE AREA (R2 THRU R9) AND THEN RETUTNS TO THE CALLER
.*       VIA R9. REQUIRES A NAME FIELD.
         AIF   (K'&NAME EQ 0).ERR1
&NAME    LM    R8,R9,JCLVLPTR           GET CURRENT LVL & DECR
         BXLE  R8,R9,0                  DECREMENT LEVEL POINTER
         ST    R8,JCLVLPTR              SAVE NEW LEVEL POINTER
         LM    R2,R9,JSAVESZ(R8)        RESTORE REGISTERS R2 THRU R9
         BR    R9                       RETURN TO CALLING PROGRAM
         MEXIT
.ERR1    MNOTE 8,'OMITTED NAME.'
         MEND
