         MACRO
&NAME    ATTEN
         GBLA  &IEDQZE(64)
         GBLB  &IEDQZA(64)
.*A78000                                                         S22029
.*C330000,750000                                                 S22029
.*D150000,210000-240000,540000-690000                            S22029
.*       VERSION DATED SEPT 14,1971                              S22029
         SPACE
.DFLT    AIF   (NOT &IEDQZA(9)).NODFLT
.AT1     AIF   (&IEDQZA(5)).VCON                                 S22029
         MNOTE 12,'***  IHB070  SEQUENCE ERROR-MUST FOLLOW INMSG OR    *
                OUTMSG MACRO.'
         AGO   .MEND
.NODFLT  MNOTE 12,'***  IHB312  -  MACRO MUST FOLLOW STARTMH MACRO WITH*
                TSOMH=YES.'
         AGO   .MEND
.VCON    IEDQVCON 8,IEDAYX  .      INMSG/OUTMSG INTERFACE
&NAME    DC    AL1(&IEDQZE(8)),AL1(12),X'0100'                   S22029
         DC    XL4'00120000'
         DC    V(IEDAYA) . ADDRESS OF ATTENTION ROUTINE          S22029
.MEND    SPACE 2
         MEND
