         MACRO
&NAME    CHECKPT
         GBLA  &IEDQZE(64)
         GBLB  &IEDQZA(64)
*  CHANGE ACTIVITY AS FOLLOWS
********************MICROFICHE FLAGS ************************ SUPT CODE
.*C760000                                                       SA64688
.*             VERSION DATED JUNE 1, 1973                       SA64688
         SPACE
         AIF   (NOT &IEDQZA(9)).SCHK
         MNOTE 12,'***  IHB312  MUST FOLLOW STARTMH MACRO WITH TSOMH=NO*
               '
         AGO   .MEND
.SCHK    AIF   (&IEDQZA(1) OR &IEDQZA(2)).OK
         MNOTE 12,'***  IHB070  SEQUENCE ERROR - MUST FOLLOW INHDR, INB*
               UF, INMSG, OUTHDR, OUTBUF OR OUTMSG MACRO'
         AGO   .MEND
.OK      IEDQVCON 41,IEDQBB
         AIF   (&IEDQZA(5)).MSG
&NAME    BAL   1,*+6
         DC    AL1(&IEDQZE(41)),AL1(2)
         L     15,IEDUI
         BALR  14,15
         AGO   .MEND
.MSG     ANOP
&NAME    DC    AL1(&IEDQZE(41)+1),AL1(4),AL2(0) .               SA64688
         AIF   (NOT &IEDQZA(1)).MEND
&IEDQZA(18)  SETB  1
.MEND    SPACE 2
         MEND
