         MACRO
&NAME    IEDNOL &P
         GBLA  &IEDNCT,&IEDQAR(64)
         LCLA  &A,&B,&C
         LCLC  &CSECT
&CSECT   SETC  '&SYSECT'
         AIF   (&IEDNCT NE 0).BRANCH
         SPACE 2
IEDQTNT  CSECT
         DC    XL1'0'
&CSECT   CSECT
         AGO   .EXIT
.BRANCH  ANOP
&A       SETA  &IEDQAR(1)-3
&B       SETA  &A-1
         SPACE 2
IEDQTNT  CSECT
         DC    AL1(&IEDNCT)
         DC    AL3(IEDNOLTM)
         AIF   (&B EQ 0).SKIP
         DC    CL&B' '
.SKIP    ANOP
&C       SETA  1
.ENT1    AIF   (&IEDNCT EQ &C).GEN
         DC    CL&A' ',AL3(0)
&C       SETA  &C+1
         AGO   .ENT1
.GEN     ANOP
         SPACE 1
&CSECT   CSECT
IEDNOLTM DS    0F
&C       SETA  0
.ENT2    AIF   (&IEDNCT EQ &C).EXIT
         DC    XL120'0'
&C       SETA  &C+1
         AGO   .ENT2
.EXIT    ANOP
         MEND
