         MACRO
&NAME    IEDQTT  &A=(A,B,C,D,E,F),&X=0,&TAC=0,&ACTV=,&GPCU=      S22024
         GBLA  &IEDQAR(64)
         GBLB  &IEDQFL(16) .                                     S22025
         GBLC  &IEDQSV(8),&IEDQCTM .                             S22025
         LCLA  &B
         LCLB  &V                                                S22024
.*C060000,110000-130000,420000                                   S22025
.*A400000-410000                                                 S22025
&IEDQAR(4)  SETA  &IEDQAR(4)+1
         AIF   (&IEDQAR(4) LE 9999).SP
&IEDQAR(4)  SETA  0
&IEDQAR(7)  SETA  &IEDQAR(7)+1
.SP      SPACE 1
IEDQTNT  CSECT
&B       SETA  &IEDQAR(1)-3
&IEDQSV(1)  SETC  'IED'.'&IEDQAR(4)'.'&A(&IEDQAR(7))'
         AIF   (&IEDQFL(9) AND &TAC NE 0).NCTRM .                S22025
&IEDQCTM SETC '&IEDQSV(1)' .                                     S22025
.NCTRM   AIF   ('&X' NE '0').SPC .                               S22025
&NAME    DC    CL&B'&NAME'  .   ENTRY NAME
         AGO    .COM
.SPC     ANOP
&IEDQSV(1)  SETC  '&NAME'
&IEDQSV(8)  SETC  'IED&IEDQAR(4).&A(&IEDQAR(7))'
IED&IEDQAR(4).&A(&IEDQAR(7)) DC  CL&B'&NAME'
.COM     DC    AL3(&IEDQSV(1))
         SPACE 1
&IEDQSV(4)  CSECT
         AIF   (NOT &IEDQFL(12)).SKP                             S22024
         DS    0F
         AIF   ('&GPCU' EQ '').NOTGPTM                           S22024
         DC    AL1(0),AL3(&GPCU)    .   GPFLG,CUPTR              S22024
.NOTGPTM ANOP                                                    S22024
         DC    AL1(0)  .   RESERVED                              S22024
&V       SETB  ('&ACTV' EQ 'NO')                                 S22024
         DC    BL1'00&V.00000'  .   STAT1                        S22024
         DC    AL2(0)  .   RSID                                  S22024
.SKP     ANOP                                                    S22024
&IEDQSV(1)  DS  0F
&IEDQSV(1) SETC '&NAME'
         MEND
