         MACRO
&NAME    INEND
.*A810000                                                       SA57357
         GBLB  &IEDQZA(64)
         GBLC  &IEDQZB
.*             VERSION DATED SEPTEMBER 21, 1970
         SPACE
&IEDQZA(6) SETB 0
         AIF   (&IEDQZA(1)).OK
         MNOTE 12,'***  IHB070  SEQUENCE ERROR - MUST FOLLOW INHDR MACR*
               O'
         AGO   .MEND
.OK      AIF   ('&NAME' EQ '').NON
&NAME    DS    0H
.NON     AIF   (&IEDQZA(10)).GLOB
         INMSG
.GLOB    ANOP
&IEDQZA(1) SETB 0
&IEDQZA(2) SETB 0
&IEDQZA(3) SETB 0
&IEDQZA(4) SETB 0
&IEDQZA(5) SETB 0
&IEDQZB  DC    AL1(1),X'00'
&IEDQZB  SETC  'IEDR'.'&SYSNDX'
.MEND    SPACE 2
&IEDQZA(18) SETB 0
&IEDQZA(27) SETB 0
&IEDQZA(48)  SETB 0                                             SA57357
         MEND
