         MACRO
&NAME    INVLIST1 &ORDER=,&EOT=,&CPUID=0,&MASTER=NO,&AUTO=     @YA14062
         GBLA  &IEDQAR(64)
         GBLB  &IEDQZA(64)
         GBLC  &IEDQZM(203)
         GBLC  &IEDQZN(200)
         LCLA  &LN,&IX,&ML,&T
         LCLB  &E,&MT                                            S99244
         LCLC  &V
.*  CHANGE ACTIVITY AS FOLLOWS
.******************* MICROFICHE FLAGS *********************** SUPT CODE
.*C192000                                                        A44918
.*A760000,848000                                                SA52950
.*A074000,208000,536000                                          S99244
.*C016000,064000,076000                                          S99244
.*D136000,140000                                                SA61791
.*A208000                                                       SA61791
.*A536000                                                       SA70876
.*D078001,120000                                               @XA07519
.*A214000                                                      @XA07519
.*A215500                                                      @SA76306
.*C200000,214500                                               @SA76306
.* A540000-552000                                              @YA14062
.* C016000                                                     @YA14062
.*
         AIF   (&IEDQZA(33)).A3
&IEDQZA(34) SETB 0
&IEDQAR(10) SETA 0
&IEDQAR(11) SETA 0
&IEDQZM(1) SETC ''
&IEDQZM(3) SETC '&NAME'
.A2      AIF   (&LN GE K'&ORDER(1)).E1
&LN      SETA  &LN+1
         AIF   ('&ORDER(1)'(&LN,1) NE '+' AND '&ORDER(1)'(&LN,1) NE '-'X
               ).A2
&IEDQAR(33) SETA K'&ORDER(1)-&LN+1
         AIF   (&IEDQAR(33) GT 48).E1                            A44912
.A3      ANOP                                                   SA61791
         AIF   ('&EOT' EQ '').A30                               SA61791
&IEDQZM(1)  SETC '&EOT'                                         SA61791
.A30     AIF   ('&MASTER' EQ 'NO' OR '&MASTER' EQ 'YES').A31    SA61791
         MNOTE 12,'*** IHB348 INVALID MASTER OPERAND - &MASTER'  S99244
.A31     ANOP                                                    S99244
         AIF   (&IEDQZA(33) EQ 1 AND '&CPUID' EQ '0').A32      @SA76306
&IEDQZM(2)   SETC  '&CPUID'                                    @XA07519
.A32     ANOP                                                  @XA07519
&IEDQZA(33) SETB 1                                             @SA76306
&LN      SETA  N'&ORDER-1
         AIF   ('&ORDER'(K'&ORDER-1,1) EQ ',').A4
&LN      SETA  &LN+1
&IEDQZA(33) SETB 0
         AGO   .A5
.A4      MNOTE *,'*** IHB319 CONTINUATION EXPECTED GENERATION DEFERRED'
         SPACE 2
.A5      ANOP
&IEDQAR(10) SETA &IEDQAR(10)+&LN
         AIF   (&IEDQAR(10) GT 200).E4
&IX      SETA  0
&ML      SETA  &IEDQAR(33)
         AIF   (&ML LT 9).A6
&ML      SETA  8
.A6      ANOP
         AIF   ('&ORDER(&LN)' EQ '').E2
&T       SETA  K'&ORDER(&LN)
         AIF   (&T LT &IEDQAR(33)+1 OR &T GT &IEDQAR(33)+8).E3
         AIF   ('&ORDER(&LN)'(&T-&IEDQAR(33)+1,1) EQ '+').A6A
         AIF   ('&ORDER(&LN)'(&T-&IEDQAR(33)+1,1) NE '-').E6
&IEDQAR(11) SETA &IEDQAR(11)+1
.A6A     ANOP
&IEDQZM(&IEDQAR(10)+3-&IX) SETC '&ORDER(&LN)'(1,&T-&IEDQAR(33))
&IEDQZN(&IEDQAR(10)-&IX) SETC '&ORDER(&LN)'(&T-&IEDQAR(33)+1,&ML)
.A7      AIF   (&LN EQ 1).A8
&IX      SETA  &IX+1
&LN      SETA  &LN-1
         AGO   .A6
.A8      AIF   (&IEDQZA(33)).A11
         AIF   (&IEDQZA(34)).G7
&LN      SETA  0
         AIF   ((&IEDQAR(10)/2*2) EQ &IEDQAR(10)).A9
&LN      SETA  2
.A9      CNOP  &LN,4
&T       SETA  82-&IEDQAR(1)
&IX      SETA  &IEDQAR(10)+3
.A10     DC    AL2((&IEDQZM(&IX)-IEDQTNT-&T)/&IEDQAR(1))
&IX      SETA  &IX-1
         AIF   (&IX GT 3).A10
&E       SETB  ('&IEDQZM(1)' NE '')
&LN      SETA  (&IEDQAR(33)+2)/2
         AIF   (&IEDQAR(33) NE 1).AOK                           SA70876
&LN      SETA  2                                                SA70876
.AOK     ANOP                                                   SA70876
&MT      SETB  ('&MASTER' EQ 'YES')                              S99244
         AIF   ('&AUTO' EQ 'YES').AUTO                         @YA14062
&IEDQZM(3) DC AL1(&IEDQAR(10)),AL1(&IEDQAR(10)-&IEDQAR(11)),AL1(&LN),B'X
               &E.0&MT.00000',A(&IEDQZM(2))                      S99244
         AGO   .NOAUTO                                         @YA14062
.AUTO    ANOP                                                  @YA14062
&IEDQZM(3) DC AL1(&IEDQAR(10)),AL1(&IEDQAR(10)-&IEDQAR(11)),AL1(&LN),B'X
               &E.0&MT.00001',A(&IEDQZM(2))                    @YA14062
.NOAUTO  ANOP                                                  @YA14062
.A11     AIF   (&IEDQAR(33) LT 9).G1
         INVLIST2 ORDER=&ORDER
         MEXIT
.E1      MNOTE 12,'*** IHB002 INVALID ORDER OPERAND SPECIFIED &ORDER(1)X
               '
         SPACE 2
         MEXIT
.E2      MNOTE 12,'*** IHB001 ORDER OPERAND &LN REQ''D -NOT SPECIFIED'
         SPACE 1
&IEDQZA(34) SETB 1
         AGO   .A7
.E3      MNOTE 12,'*** IHB002 INVALID ORDER OPERAND &LN SPECIFIED -&ORDX
               ER(&LN)'
         SPACE 1
&IEDQZA(34) SETB 1
         AGO   .A7
.E4      MNOTE 12,'*** IHB320 TOO MANY ENTRIES SPECIFIED'
         SPACE 2
&IEDQZA(34) SETB 1
.E5      MEXIT
.E6      MNOTE 12,'*** IHB307 INCONSISTENT LENGTH FOR &ORDER(&LN)'
&IEDQZA(34) SETB 1
         AGO   .A7
.G1      AIF   (&IEDQZA(33)).G7
&IX      SETA  1
.G2      AIF   ('&IEDQZN(&IX)'(1,1) NE '+').G3
         AIF   (&IEDQAR(33) NE 1).G2A                           SA52950
         DC    X'DF',AL1(&IX)                                   SA52950
         AGO   .G3                                              SA52950
.G2A     ANOP                                                   SA52950
&V       SETC  '&IEDQZN(&IX)'(2,&IEDQAR(33)-1)
         DC    X'&V',AL1(&IX)
.G3      ANOP
&IX      SETA  &IX+1
         AIF   (&IX LE &IEDQAR(10)).G2
         AIF   ('&IEDQZM(1)' EQ '').G4
         DC    XL1'&IEDQZM(1)'
.G4      DC    X'FE'
         AIF   (&IEDQAR(11) EQ 0).G7
&IX      SETA  1
.G5      AIF   ('&IEDQZN(&IX)'(1,1) NE '-').G6
         AIF   (&IEDQAR(33) NE 1).G5A                           SA52950
         DC    X'DF',AL1(&IX)                                   SA52950
         AGO   .G6                                              SA52950
.G5A     ANOP                                                   SA52950
&V       SETC  '&IEDQZN(&IX)'(2,&IEDQAR(33)-1)
         DC    X'&V',AL1(&IX)
.G6      ANOP
&IX      SETA  &IX+1
         AIF   (&IX LE &IEDQAR(10)).G5
.G7      MEND
