         MACRO
&NAME    LOCOPT &OP,&REG
         GBLA  &IEDQZE(64)
         GBLB  &IEDQZA(64)
         GBLC  &IEDQZB,&IEDQZC
         LCLA  &A
         LCLC  &LOC
.*             VERSION DATED SEPTEMBER 4, 1970
         SPACE
&IEDQZA(61) SETB 0
         AIF   (&IEDQZA(6)).CHECK
         AIF   (&IEDQZA(14)).CHECK .                             S22025
         MNOTE 12,'***  IHB070  SEQUENCE ERROR - MUST FOLLOW INHDR, INB*
               UF, INBLOCK, OUTHDR OR OUTBUF MACRO' .            S22025
&IEDQZA(61) SETB 1
.CHECK   AIF   ('&OP' EQ '').OPERR
         AIF    ('&OP'(K'&OP,1) EQ ')' OR '&OP'(K'&OP,1) EQ '''').OPERR
         AIF   (K'&OP GT 8).OPERR
         AIF   (('&OP'(1,1) GE 'A' AND '&OP'(1,1) LE 'Z') OR '&OP'(1,1)*
                EQ '$' OR '&OP'(1,1) EQ '#' OR '&OP'(1,1) EQ '@').REG
.OPERR   MNOTE 12,'***  IHB300  OPTION FIELD OPERAND INVALID AS SPECIFI*
               ED'
&IEDQZA(61) SETB 1
.REG     AIF   ('&REG' EQ '').ORG
         AIF   ('&REG'(1,1) NE '(' AND '&REG'(K'&REG,1) NE ')').REGERR
&LOC     SETC  '&REG'(2,K'&REG-2)
&A       SETA  &LOC
         AIF   (&A EQ 0 OR &A EQ 1 OR &A EQ 13 OR &A EQ 14).REGERR
         AIF   (&A LE 15).ORG
.REGERR  MNOTE 12,'***  IHB002  INVALID REGISTER OPERAND SPECIFIED-&REG*
               '
&IEDQZA(61) SETB 1
.ORG     AIF   (&IEDQZA(61)).MEND
         IEDQVCON 31,IEDQAE
&NAME    BAL   1,*+8
         DC    AL1(&IEDQZE(31)),AL1(4),AL1(&OP)
         AIF   ('&REG' EQ '').DEF
         AIF   (&A EQ 15).DEF
&A       SETA  &A*4+20
         DC    AL1(&A) .                OFFSET OF REG TO SAVE AREA
         AGO   .OUT
.DEF     DC    AL1(16) .                OFFSET OF REG TO SAVE AREA
.OUT     L     15,IEDUI
         BALR  14,15
.MEND    SPACE 2
         MEND
