         MACRO
&NAME    LOG   &BLK
         GBLA  &IEDQZE(64)
         GBLB  &IEDQZA(64)
.*             VERSION DATED JULY 7, 1970
         SPACE
         AIF   (&IEDQZA(1) OR &IEDQZA(2)).OP
         MNOTE 12,'***  IHB070  SEQUENCE ERROR-MUST FOLLOW INHDR, INBUF*
               , INMSG, OUTHDR, OUTBUF OR OUTMSG MACRO'
         AGO   .MEND
.OP      AIF   ('&BLK' NE '').CHECK
         MNOTE 12,'***  IHB004  REQUIRED OPERAND NOT SPECIFIED'
         AGO   .MEND
.CHECK   AIF   (NOT &IEDQZA(5)).SEG
         IEDQVCON 5,IEDQBY
.PARM    AIF   (&IEDQZA(19)).SKP
         ORG   IEDBZ
         DC    V(IEDQBZ)
         ORG
&IEDQZA(19)  SETB  1
.SKP     ANOP
&NAME    DC    AL1(&IEDQZE(5)+3),AL1(8),AL2(0),A(&BLK)
         AIF   (NOT &IEDQZA(1)).MEND
&IEDQZA(18) SETB 1
         AGO   .MEND
.SEG     IEDQVCON 39,IEDQBX
         CNOP  0,4
&NAME    BAL   1,*+8
         DC    AL1(&IEDQZE(39)),AL3(&BLK)
         L     15,IEDUI .               TO LOG SEGMENT RTN
         BALR  14,15
.MEND    SPACE 2
         MEND
