         MACRO
&NAME    LOGTYPE  &DCB,&BUFSIZE=,&QUEUES=,                             X
               &QS=(DN,DR,MO,MR,MN,34,18,66,82,98)
         GBLA  &IEDQAR(64)
         GBLB  &IEDQZA(64),&IEDQNO
         GBLB  &IEDQFL(16)                                       S22025
         GBLC  &IEDQSV(8)
         LCLA  &A,&B
         LCLB  &NO
.*C480000                                                        S21101
.*C200000,210000                                                SA56629
.*A240000                                                       SA56629
&IEDQFL(9) SETB 0                                                S22025
         AIF   (&IEDQAR(10) EQ 0).C0
         IEDQGCH  5
.C0      AIF   (&IEDQZA(55)).C1
         MNOTE 12,'*** IHB070 SEQUENCE ERROR- MUST FOLLOW TTABLE MACRO'
&NO      SETB  1
.C1      AIF   ('&NAME' NE '').C2
         MNOTE 12,'*** IHB076 MACRO NAME FIELD BLANK- NAME REQUIRED'
&NO      SETB  1
.C2      AIF   ('&IEDQSV(5)' NE '&NAME').C2A
         MNOTE 12,'LOGTYPE INVALID AS LAST TEMINAL TABLE ENTRY'
         MEXIT
.C2A     AIF   ('&DCB' NE '' AND '&QUEUES' NE '' AND                   C
               '&BUFSIZE' NE '').C2B                            SA56629
         MNOTE 12,'*** IHB004 REQUIRED OPERAND(S) NOT SPECIFIED'
         MEXIT
.IN      MNOTE 12,'*** IHB002 QUEUES OPERAND SPECIFIED &QUEUES'
.C2B     ANOP                                                   SA56629
         AIF   (('&DCB'(1,1) GE 'A' AND '&DCB'(1,1) LE 'Z') OR         C
               '&DCB'(1,1) EQ '$' OR '&DCB'(1,1) EQ '@' OR             C
               '&DCB'(1,1) EQ '#').C2D                          SA56629
.C2C     MNOTE 12,'*** IHB002 INVALID DCB OPERAND-&DCB'         SA56629
         MEXIT                                                  SA56629
.C2D     ANOP                                                   SA56629
         AIF   (K'&DCB LT 9).C3                                 SA56629
         AGO   .C2C                                             SA56629
&NO      SETB  1
         AGO   .ND
.C3      AIF   (&A GT 5).IN
&A       SETA  &A+1
         AIF   ('&QUEUES' NE '&QS(&A)').C3
&A       SETA  &QS(&A+5)
BUFSIZE  IEDQCKO &BUFSIZE,,1,R=(36,65535)
         AIF   (&IEDQNO OR &NO).ND
&IEDQSV(4) SETC '&SYSECT'
&IEDQZA(17) SETB 1                                               S22029
         IEDQTQ *+35,&A,0,0,0,ST=16,LG=AL3(*-1)
         DC    2A(0),AL1(0),VL3(IEDQBZ01),10A(0),A(&DCB),A(*-56),2A(0)
         DC    AL2(0),X'81',5A(0),A(*+4),AL1(0),AL3(&IEDQSV(2)),20A(0)
&IEDQSV(6) SETC '&DCB'
&IEDQSV(8) SETC '0'
&NAME    IEDQTT  X=1
         DC    BL1'01100000',AL3(&IEDQSV(2)),2H'01'
&A       SETA  82-&IEDQAR(1)
         DC    AL2((&IEDQSV(8)-IEDQTNT-&A)/&IEDQAR(1)),X'8000'
         DC    XL5'0',AL1(2),AL2(&BUFSIZE)
&IEDQZA(54)  SETB  1
         AIF   ('&IEDQSV(1)' NE '&IEDQSV(5)').ND
         AIF   (&IEDQAR(33) EQ 0 AND &IEDQAR(34) EQ 0).CSND
         ORG   IEDNADDR
         DC    A(&IEDQAR(34)*4+1),A(&IEDQAR(33)*4+3) .           S21101
         ORG
.CSND    AIF   (&IEDQAR(3) EQ 0).ND
IEDQOPT  CSECT
IEDQOPTN DC    AL2(&IEDQAR(15))
&IEDQSV(4)  CSECT
.ND      SPACE 2
&IEDQNO  SETB  0
&IEDQZA(17) SETB 0                                               S22029
         MEND
