         MACRO
&NAME    MSGEDIT &OP,&BLANK=YES
         GBLA  &IEDQZD,&IEDQZE(64),&IEDQZK
         GBLB  &IEDQZA(64)
         LCLA  &N,&IX,&L,&STAT(31),&F(31),&I(124),&K(124),&D(124),&H
         LCLA  &LEN,&WK,&OFF,&AO                                 S22025
         LCLB  &BIT(8),&T,&M,&NOGO,&SW                           S21903
         LCLC  &C,&CH(3),&PREFX(2)                               S21903
.*A105000,108000,173000,196000,198000,291000,293000              S21903
.*C106000,107000,160000,164000,167000,168000,178000,181000       S21903
.*C236000,240000,243000,251000,296000,304000,363000              S21903
.*A426000,461000                                                SA51770
.*C009600,424000                                                SA51770
.*A108000,147600,152000 .                                        A49236
.*D147000 .                                                      A49236
.*D465000                                                        A49236
.*A117000                                                        A44897
.*C009600                                                        A44897
.*A147000                                                        A41035
.*C009000,475000                                                 A41035
.*D142000-143000                                                 A41035
.*C049000                                                       SA68213
.*A418100,418300,418400,418600                                  OX01435
.*C401100,401300,405200,405200,405400,415400,416000,418200,    @OY05441
.*C418340,418500,418640,623000                                 @OY05441
.*C198000,198500                                               @OY12285
.*           VERSION DATED JANUARY 12,1976                     @OY12285
         SPACE
.* MEANING OF INDICATORS
.* &BIT(8) -  1- I, 2 - A, 3 - T, 4 - INSERT IS DATA,
.*            5 - IDLES, 6 - TO IS STRING, 7 - AT IS STRING,
.*            8 - AT IS SCAN
.* &F - 1 - I, 2 - A/T, 4 - A, 8 - T, 32 - AT IS STRING
.* &STAT - 1 - INCLUSIVE TO, 2 - INCLUSIVE AT, 4 - TO IS COUNT,
.*         8 - TO IS OFFSET OR SCAN, 16 - TO IS STRING,
.*         32 - DATA IS CONTRACT, 64 - DATA IS IDLES,
.*         128 - DATA IS STRING, 192 - DATA IS DELIMIT
&H       SETA  0
         AIF   (NOT &IEDQZA(9)).TSOCHK                              TSO
         MNOTE 12,'***  IHB312  MUST FOLLOW STARTMH MACRO WITH TSOMH=NO*
               '
&NOGO    SETB  1
.TSOCHK  AIF   (NOT &IEDQZA(5)).INBLK                            S22025
         MNOTE 12,'***  IHB070  SEQUENCE ERROR - MUST FOLLOW INHDR, INB*
               UF, OUTHDR OR OUTBUF MACRO'
&NOGO    SETB  1
.INBLK   AIF   (NOT &IEDQZA(14)).T1                              S22025
.QCBDC   IEDQVCON (55,16),(IEDQBN,IEDQAO)                        S22025
.T1      AIF   ('&OP'(2,1) EQ '(' AND '&OP'(K'&OP-1,1) EQ ')').T11
         MNOTE 12,'***  IHB300  FIRST OPERAND INVALID AS SPECIFIED'
         AGO   .MEND
.T11     AIF   (N'&OP LE 31 AND N'&OP GT 0).T2
.T3      AIF   (&N GT 1).T5
         MNOTE 12,'***  IHB300  FIRST OPERAND INVALID AS SPECIFIED'
         AGO   .T6
.T5      MNOTE 12,'***  IHB300  OPERAND &N INVALID AS SPECIFIED'
.T6      ANOP
&NOGO    SETB  1
.T2      AIF   ('&BLANK' EQ '' OR '&BLANK' EQ 'YES' OR '&BLANK' EQ 'NO'*
               ).T4
         IEDQCHAR 1,&BLANK
         AIF   (NOT &IEDQZA(24)).T4
         AIF   (&IEDQZD EQ 1).T4
         MNOTE 12,'***  IHB300  BLANK OPERAND INVALID AS SPECIFIED'
&NOGO    SETB  1
.T4      ANOP
&N       SETA  &N+1
         AIF   (&N GT N'&OP).MEND
.LOOP    AIF   ('&OP(&N)'(1,1) EQ '(' AND '&OP(&N)'(K'&OP(&N),1) EQ ')'*
               ).L1
         MNOTE 12,'***  IHB300  SUBOPERAND &N INVALID AS SPECIFIED'
&NOGO    SETB  1
.L1      AIF   ('&OP(&N)'(2,1) EQ 'I' OR '&OP(&N)'(2,1) EQ 'R').L2
.M1      MNOTE 12,'***  IHB300  FUNCTION SUBOPERAND &N INVALID AS SPECI*
               FIED'
         AGO   .MEND                                            SA68213
.L2      AIF   ('&OP(&N)'(2,1) NE 'I').R1
&F(&N)   SETA  1
&BIT(1)  SETB  1
&IX      SETA  3
         AIF   ('&OP(&N)'(3,1) NE ')').L2A
&BIT(8)  SETB  1
         AGO   .L6
.L2A     AIF   ('&OP(&N)'(3,1) NE ',').M1
         AGO   .L3
.R1      ANOP
&IX      SETA  3
         AIF   ('&OP(&N)'(3,1) NE ')').R1A
&STAT(&N) SETA &STAT(&N)+40
&BIT(8)  SETB  1
         AGO   .L6
.R1A     AIF   ('&OP(&N)'(3,1) NE ',').R2
         AGO   .L3
.R2      ANOP
&F(&N)   SETA  2
         AIF   ('&OP(&N)'(3,1) NE 'A').R3
&F(&N)   SETA  &F(&N)+4
&BIT(2)  SETB  1
&STAT(&N) SETA &STAT(&N)+2
         AGO   .R4
.R3      AIF   ('&OP(&N)'(3,1) NE 'T').M1
&F(&N)   SETA  &F(&N)+8
&BIT(3)  SETB  1
&STAT(&N) SETA &STAT(&N)+1
.R4      ANOP
&IX      SETA  4
         AIF   ('&OP(&N)'(4,1) NE ')').R41
&STAT(&N) SETA &STAT(&N)+40
&BIT(8)  SETB  1
         AGO   .L6
.R41     AIF   ('&OP(&N)'(4,1) EQ ',').L3
.R5      AIF   ('&OP(&N)'(3,1) EQ '&OP(&N)'(4,1)).M1
         AIF   ('&OP(&N)'(4,1) NE 'A').R6
&F(&N)   SETA  &F(&N)+4
&BIT(2)  SETB  1
&STAT(&N) SETA &STAT(&N)+2
         AGO   .R7
.R6      AIF   ('&OP(&N)'(4,1) NE 'T').M1
&F(&N)   SETA  &F(&N)+8
&BIT(3)  SETB  1
&STAT(&N) SETA &STAT(&N)+1
.R7      ANOP
&IX      SETA  5
         AIF   ('&OP(&N)'(5,1) NE ')').R7A
&STAT(&N) SETA &STAT(&N)+40
&BIT(8)  SETB  1
         AGO   .L6
.R7A     AIF   ('&OP(&N)'(5,1) NE ',').M1
.L3      ANOP
&IX      SETA  &IX+1
         AIF   ('&OP(&N)'(&IX,1) NE ')').D1
&STAT(&N) SETA &STAT(&N)+32
         AGO   .R6
.M17     ANOP .                                                  S21903
&PREFX(1) SETC 'HEXFORM ' .                                      S21903
&PREFX(2) SETC 'IN' .                                            S21903
&SW      SETB  1 .                                               S21903
         AGO   .M2 .                                             S21903
.M18     ANOP                                                    S21903
&L       SETA  &L+1                                              S21903
         AIF   ('&OP(&N)'(&IX+&L,1) EQ ')').M19                  S21903
         AGO   .M18                                              S21903
.M185    ANOP .                                                  S21903
&PREFX(1) SETC 'DEC INTE' .                                      S21903
&PREFX(2) SETC 'GER IN' .                                        S21903
.M19     ANOP                                                    S21903
&L       SETA  &L+1                                              S21903
.M2      MNOTE 12,'***  IHB300 &PREFX(1).&PREFX(2) DATA SUBOPERAND &N I*
               NVALID AS SPECIFIED'  .                           S21903
&NOGO    SETB  1
&PREFX(1)  SETC ''                                               S21903
&PREFX(2)  SETC ''                                               S21903
&IX      SETA  &IX+&L .                 BUMP TO NEXT OPERAND     A49236
         AIF   (&SW).CONT .                                      S21903
         AGO   .L4 .                                             A49236
.D1      AIF   ('&OP(&N)'(&IX,1) NE ',').D11
&STAT(&N) SETA &STAT(&N)+32
         AGO   .L4
.D11     AIF   ('&OP(&N)'(&IX,8) EQ 'CONTRACT' OR '&OP(&N)'(&IX,7) EQ '*
               DELIMIT').D1A
&BIT(4)  SETB  1
.D1A     AIF   ('&OP(&N)'(&IX,8) NE 'CONTRACT').D2
&IX      SETA  &IX+8
&STAT(&N) SETA &STAT(&N)+32
         AIF   ('&OP(&N)'(2,1) EQ 'R' AND '&OP(&N)'(&IX,1) NE ')').L4
.*                                                               A44897
&BIT(8)  SETB  1                                                 A44897
         AGO   .L4
.D2      AIF   ('&OP(&N)'(&IX,1) EQ '(' OR '&OP(&N)'(&IX,7) EQ 'DELIMIT*
               ').D3
&L       SETA  1
.DL1     AIF   ('&OP(&N)'(&IX+&L,1) EQ ')').DL2
         AIF   ('&OP(&N)'(&IX+&L,1) EQ ',').DL2
&L       SETA  &L+1
         AGO   .DL1
.DL2     AIF   (&L GT 21).M2
         AIF   (&L GT 8).DLS1
&CH(1)   SETC  '&OP(&N)'(&IX,&L)
&CH(2)   SETC  ''
&CH(3)   SETC  ''
         AGO   .CH1
.DLS1    ANOP
&CH(1)   SETC  '&OP(&N)'(&IX,8)
         AIF   (&L GT 16).DLS2
&CH(2)   SETC  '&OP(&N)'(&IX+8,&L-8)
&CH(3)   SETC  ''
         AGO   .CH1
.DLS2    ANOP
&CH(2)   SETC  '&OP(&N)'(&IX+8,8)
&CH(3)   SETC  '&OP(&N)'(&IX+16,&L-16)
.CH1     IEDQCHAR 8,&CH(1).&CH(2).&CH(3)
&I(&H+1) SETA  &IX
&K(&H+1) SETA  &L
&D(&H+1) SETA  &IEDQZD
         AIF   (&IEDQZA(24)).M2                                  A41035
         AIF   (&IEDQZD GT 8).M2                                 A41035
&IX      SETA  &IX+&L .                 BUMP TO NEXT OPERAND     A49236
&STAT(&N) SETA &STAT(&N)+128
         AIF   ('&OP(&N)'(&IX,1) NE ')').L4
&BIT(8)  SETB  1
         AGO   .L4
.D3      AIF   ('&OP(&N)'(&IX,7) NE 'DELIMIT').D4
&L       SETA  7 .                                               A49236
         AIF   ('&OP(&N)'(2,1) NE 'R').M2
&STAT(&N) SETA &STAT(&N)+192
&IX      SETA  &IX+7
         AGO   .L4
.D4      ANOP
&BIT(5)  SETB  1
&L       SETA  2
.DL3     AIF   ('&OP(&N)'(&IX+&L,1) EQ ')').M19 .                S21903
         AIF   ('&OP(&N)'(&IX+&L,1) EQ ',').DL4
&L       SETA  &L+1
         AGO   .DL3
.DL4     AIF   (&L GT 9).M17 .                                   S21903
&CH(1)   SETC  '&OP(&N)'(&IX+1,&L-1)
         IEDQCHAR 1,&CH(1)
         AIF   (&IEDQZA(24)).M17 .                               S21903
         AIF   (&IEDQZD GT 1).M17 .                              S21903
&I(&H+1) SETA  &IX+1
&K(&H+1) SETA  &L-1
&D(&H+1) SETA  &IEDQZD
&IX      SETA  &IX+&L
&STAT(&N) SETA &STAT(&N)+64
         AGO   .CONT1 .                                          S21903
.CONT    ANOP .                                                  S21903
&SW      SETB  0 .                                               S21903
.CONT1   ANOP .                                                  S21903
&L       SETA  1
.DL5     AIF   ('&OP(&N)'(&IX+&L,1) EQ ')').DL6
&L       SETA  &L+1
         AGO   .DL5
.DL6     AIF   (&L GT 7).M185 .                                  S21903
&CH(1)   SETC  '&OP(&N)'(&IX+1,&L-1)
         IEDQMASK &CH(1),1
         AIF   (&IEDQZA(24)).M185 .                              S21903
&I(&H+2) SETA  &IX+1
&K(&H+2) SETA  &L-1
&D(&H+2) SETA  &IEDQZD
&IX      SETA  &IX+&L+1
.L4      AIF   ('&OP(&N)'(&IX,1) EQ ')').L6
         AIF   ('&OP(&N)'(&IX,1) NE ',').M2
&IX      SETA  &IX+1
         AIF   ('&OP(&N)'(&IX,1) EQ 'C' OR '&OP(&N)'(&IX,1) EQ 'X').A2
         AIF   (N'&OP GT 1 OR ('&OP(&N)'(3,1) EQ 'A' OR '&OP(&N)'(4,1) *
               EQ 'A')).T3
         AIF   ('&OP(&N)'(&IX,1) EQ ')').L6
         AIF   ('&OP(&N)'(&IX,1) EQ ',').TEMP1
         AIF   ('&OP(&N)'(&IX,4) NE 'SCAN').A1
&BIT(8)  SETB  1
         AIF   (&IEDQZA(3) OR &IEDQZA(4)).L4A
.M27     ANOP .                                                  S21903
&L       SETA  0 .                                               S21903
.M28     ANOP .                                                  S21903
&L       SETA  &L+1 .                                            S21903
         AIF   ('&OP(&N)'(&IX+&L,1) EQ ')').M29 .                S21903
         AIF   ('&OP(&N)'(&IX+&L,1) EQ ',').M3 .                 S21903
         AGO   .M28 .                                            S21903
.M29     ANOP .                                                  S21903
&L       SETA  &L+1 .                                            S21903
.M3      MNOTE 12,'***  IHB300  AT SUBOPERAND &N INVALID AS SPECIFIED'
         AGO   .MEND                                           @OY12285
.TEMP1   ANOP
&BIT(8)  SETB  1
         AGO   .L5
.L4A     ANOP
&IX      SETA  &IX+4
         AGO   .L5
.A1      AIF   ('&OP(&N)'(&IX,1) EQ '(').A3
&L       SETA  1
.AL1     AIF   ('&OP(&N)'(&IX+&L,1) EQ ')').AL2
         AIF   ('&OP(&N)'(&IX+&L,1) EQ ',').AL2
&L       SETA  &L+1
         AGO   .AL1
.AL2     AIF   (&L GT 9).M3
         AIF   (&L GT 8).ALS1
&CH(1)   SETC  '&OP(&N)'(&IX,&L)
&CH(2)   SETC  ''
         AGO   .MK1
.ALS1    ANOP
&CH(1)   SETC  '&OP(&N)'(&IX,8)
&CH(2)   SETC  '&OP(&N)'(&IX+8,&L-8)
.MK1     IEDQMASK &CH(1).&CH(2),2
         AIF   (&IEDQZA(24)).M3
&I(&H+3) SETA  &IX
&K(&H+3) SETA  &L
&D(&H+3) SETA  &IEDQZD
&IX      SETA  &IX+&L
         AGO   .L5
.A2      ANOP
&L       SETA  1
.AL3     AIF   ('&OP(&N)'(&IX+&L,1) NE ')').ALT3
         AGO   .AL4
.ALT3    AIF   ('&OP(&N)'(&IX+&L,1) EQ ',').AL4
&L       SETA  &L+1
         AGO   .AL3
.A3      ANOP
&M       SETB  1
&L       SETA  1
.AL6     AIF   ('&OP(&N)'(&IX+&L,1) EQ ')').M29 .                S21903
         AIF   ('&OP(&N)'(&IX+&L,1) EQ ',').AL7
&L       SETA  &L+1
         AGO   .AL6
.AL7     AIF   (&L GT 5).M28 .                                   S21903
&CH(1)   SETC  '&OP(&N)'(&IX+1,&L-1)
         IEDQMASK &CH(1),2
         AIF   (&IEDQZA(24)).M28 .                               S21903
&I(&H+3) SETA  &IX+1
&K(&H+3) SETA  &L-1
&D(&H+3) SETA  &IEDQZD
&IX      SETA  &IX+&L+1
         AIF   (('&OP(&N)'(&IX,1) GE 'A' AND '&OP(&N)'(&IX,1) LE 'Z') O*
               R '&OP(&N)'(&IX,1) EQ '$' OR '&OP(&N)'(&IX,1) EQ '#' OR *
               '&OP(&N)'(&IX,1) EQ '@').ALS6
         AGO   .M27 .                                            S21903
.ALS6    ANOP
&L       SETA  1
.AL8     AIF   ('&OP(&N)'(&IX+&L,1) EQ ',').M3
         AIF   ('&OP(&N)'(&IX+&L,1) EQ ')').AL9
&L       SETA  &L+1
         AGO   .AL8
.AL9     ANOP
&I(&H+4) SETA  &IX
&K(&H+4) SETA  &L
&IX      SETA  &IX+&L
         AGO   .L6
.AL4     AIF   (&L GT 21).M3
         AIF   (&L GT 8).ALS4
&CH(1)   SETC  '&OP(&N)'(&IX,&L)
&CH(2)   SETC  ''
&CH(3)   SETC  ''
         AGO   .CH2
.ALS4    ANOP
&CH(1)   SETC  '&OP(&N)'(&IX,8)
         AIF   (&L GT 16).ALS5
&CH(2)   SETC  '&OP(&N)'(&IX+8,&L-8)
&CH(3)   SETC  ''
         AGO   .CH2
.ALS5    ANOP
&CH(2)   SETC  '&OP(&N)'(&IX+8,8)
&CH(3)   SETC  '&OP(&N)'(&IX+16,&L-16)
.CH2     IEDQCHAR 8,&CH(1).&CH(2).&CH(3)
         AIF   (&IEDQZA(24)).M3
         AIF   (&IEDQZD GT 8).M3
&I(&H+3) SETA  &IX
&K(&H+3) SETA  &L
&D(&H+3) SETA  &IEDQZD
&IX      SETA  &IX+&L
&L       SETA  1
&F(&N)   SETA  &F(&N)+32
&BIT(7)  SETB  1
.L5      AIF   ('&OP(&N)'(&IX,1) EQ ')').L5A
&IX      SETA  &IX+1
         AIF   ('&OP(&N)'(2,1) NE 'I').O1
         AIF   ('&OP(&N)'(&IX,1) EQ ')').O1
.M38     ANOP .                                                  S21903
&L       SETA  0 .                                               S21903
.M39     ANOP .                                                  S21903
&L       SETA  &L+1 .                                            S21903
         AIF   ('&OP(&N)'(&IX+&L,1) EQ ')').M4 .                 S21903
         AGO   .M39 .                                            S21903
.M4      MNOTE 12,'***  IHB300  TO SUBOPERAND &N INVALID AS SPECIFIED'
&NOGO    SETB  1
&IX      SETA  &IX+&L .                                          A49236
         AGO   .L6 .                                             S21903
.O1      AIF   ('&OP(&N)'(&IX,1) EQ ')').L5A
         AIF   ('&OP(&N)'(&IX,4) NE 'SCAN').O2
         AIF   ('&OP(&N)'(3,1) EQ 'T' OR '&OP(&N)'(4,1) EQ 'T').M38
.*                                                               S2×903
&STAT(&N) SETA &STAT(&N)+8
&IX      SETA  &IX+4
         AGO   .L6
.L5A     AIF   ('&OP(&N)'(2,1) NE 'R').L6
&STAT(&N) SETA &STAT(&N)+8
         AGO   .L6
.O2      AIF   ('&OP(&N)'(&IX,1) LT '0' OR '&OP(&N)'(&IX,1) GT '9').O3
         AIF   ('&OP(&N)'(3,1) EQ 'T' OR '&OP(&N)'(4,1) EQ 'T').M38
.*                                                               S21903
&L       SETA  1
.OL1     AIF   ('&OP(&N)'(&IX+&L,1) EQ ')').OL2
&L       SETA  &L+1
         AGO   .OL1
.OL2     AIF   (&L GT 9).M4
         AIF   (&L GT 8).OLS1
&CH(1)   SETC  '&OP(&N)'(&IX,&L)
&CH(2)   SETC  ''
         AGO   .MK2
.OLS1    ANOP
&CH(1)   SETC  '&OP(&N)'(&IX,8)
&CH(2)   SETC  '&OP(&N)'(&IX+8,&L-8)
.MK2     IEDQMASK &CH(1).&CH(2),2
         AIF   (&IEDQZA(24)).M4
&I(&H+4) SETA  &IX
&K(&H+4) SETA  &L
&D(&H+4) SETA  &IEDQZD
&IX      SETA  &IX+&L
&STAT(&N) SETA &STAT(&N)+8
         AIF   (&BIT(7) OR &BIT(8)).L6
&CH(1)   SETC  '&OP(&N)'(&I(&H+3),&K(&H+3))
&CH(2)   SETC  '&OP(&N)'(&I(&H+4),&K(&H+4))
&LEN     SETA  &CH(1)
&WK      SETA  &CH(2)
&IX      SETA  &IX-&L .                                          A49236
         AIF   (&LEN GT &WK).M4
&IX      SETA  &IX+&L .                                          A49236
         AGO   .L6
.O3      AIF   ('&OP(&N)'(&IX,1) EQ '(').O4
&BIT(6)  SETB  1
&L       SETA  1
.OL3     AIF   ('&OP(&N)'(&IX+&L,1) EQ ')').OL4
&L       SETA  &L+1
         AGO   .OL3
.OL4     AIF   (&L GT 22).M4
         AIF   (&L GT 8).OLS4
&CH(1)   SETC  '&OP(&N)'(&IX,&L)
&CH(2)   SETC  ''
&CH(3)   SETC  ''
         AGO   .CH3
.OLS4    ANOP
&CH(1)   SETC  '&OP(&N)'(&IX,8)
&WK      SETA  &L-8
         AIF   (&WK GT 8).OLS5
&CH(2)   SETC  '&OP(&N)'(&IX+8,&WK)
&CH(3)   SETC  ''
         AGO   .CH3
.OLS5    ANOP
&WK      SETA  &WK-8
&CH(2)   SETC  '&OP(&N)'(&IX+8,8)
&CH(3)   SETC  '&OP(&N)'(&IX+16,&WK)
.CH3     IEDQCHAR 8,&CH(1).&CH(2).&CH(3)
         AIF   (&IEDQZA(24)).M4
         AIF   (&IEDQZD GT 8).M4
&I(&H+4) SETA  &IX
&K(&H+4) SETA  &L
&D(&H+4) SETA  &IEDQZD
&IX      SETA  &IX+&L
&STAT(&N) SETA &STAT(&N)+16
         AGO   .L6
.O4      AIF   ('&OP(&N)'(3,1) EQ 'T' OR '&OP(&N)'(4,1) EQ 'T').M38
.*                                                               S21903
&L       SETA  1
.OL5     AIF   ('&OP(&N)'(&IX+&L,1) EQ ')').OL6
&L       SETA  &L+1
         AGO   .OL5
.OL6     AIF   (&L GT 10).M4
         AIF   (&L GT 9).OLS6
&CH(1)   SETC  '&OP(&N)'(&IX+1,&L-1)
&CH(2)   SETC  ''
         AGO   .MK3
.OLS6    ANOP
&CH(1)   SETC  '&OP(&N)'(&IX+1,8)
&CH(2)   SETC  '&OP(&N)'(&IX+9,&L-9)
.MK3     IEDQMASK &CH(1).&CH(2),2
         AIF   (&IEDQZA(24)).M4
&I(&H+4) SETA  &IX+1
&K(&H+4) SETA  &L-1
&D(&H+4) SETA  &IEDQZD
&STAT(&N) SETA &STAT(&N)+4
&IX      SETA  &IX+&L
.L6      AIF   ('&OP(&N)'(&IX,1) NE ')').T3
         AIF   (N'&OP EQ 1).ORG
&H       SETA  4*&N
&N       SETA  &N+1
         AIF   ('&OP(&N)' EQ '').ORG
         AGO   .LOOP
.ORG     AIF   (&NOGO).MEND
         CNOP  0,4
         AIF   (NOT &IEDQZA(14)).NOINBLK                         S22025
&AO      SETA  2                                                 S22025
.NOINBLK ANOP                                                    S22025
         AIF   ('&NAME' EQ '').TORG
&NAME    DS    0F
.TORG    AIF   (N'&OP GT 1).ORG1
         AIF   (&BIT(7)).ORG1
         AIF   (&M).MULT
         AIF   (NOT &BIT(1)).AP
         IEDQVCON (17,38,16),(IEDQA2,IEDQAF,IEDQAO)              S22025
         AIF   (&I(3) NE 0).OLDBAL
&BIT(8)  SETB  1
.OLDBAL  ANOP
&T       SETB  (NOT &BIT(8))
         AIF (&IEDQZA(14)).INBA2                                 S22025
         BAL   1,IED&SYSNDX                                    @OY05441
         AGO   .REGA2                                            S22025
.INBA2   BAL   1,IED&SYSNDX                                    @OY05441
         DC    AL1(&IEDQZE(55)),AL1(8),AL1(&IEDQZE(38))          S22025
         DC    AL1(&IEDQZE(16)+&AO)                              S22025
         DC    F'0'                     QCB FOR MSGEDIT          S22025
.REGA2   ANOP                                                    S22025
         DC    AL1(&IEDQZE(17)+&BIT(5)),AL1(8+2*&T),AL1(&IEDQZE(38)),AL*
               1(&IEDQZE(16)+&AO)                                S22025
         AGO   .INS
.MULT    IEDQVCON (34,38,16,31),(IEDQA8,IEDQAF,IEDQAO,IEDQAE)
         AIF   (&IEDQZA(14)).INBA8                               S22025
         BAL   1,IED&SYSNDX                                    @OY05441
         AGO   .REGA8                                            S22025
.INBA8   BAL   1,IED&SYSNDX                                    @OY05441
         DC    AL1(&IEDQZE(55)),AL1(8),AL1(&IEDQZE(38))          S22025
         DC    AL1(&IEDQZE(16)+&AO)                              S22025
         DC    F'0'                     QCB FOR MSGEDIT          S22025
.REGA8   ANOP                                                    S22025
         DC    AL1(&IEDQZE(34)+&BIT(5)),X'0C',AL1(&IEDQZE(38)),AL1(&IED*
               QZE(16)+&AO)                                      S22025
         AGO   .INS
.ORG1    IEDQVCON (15,38,16,29),(IEDQAN,IEDQAF,IEDQAO,IEDQAJ)    S22025
         AGO   .BIGGEN
.AP      ANOP
&T       SETB  (NOT &BIT(8))
         AIF   (NOT &BIT(6)).SMV
         IEDQVCON (24,38,16,29),(IEDQAP,IEDQAF,IEDQAO,IEDQAJ)    S22025
         AIF (NOT &IEDQZA(14)).REGAP1                            S22025
         BAL   1,IED&SYSNDX                                    @OY05441
         AGO   .DCP1                                             S22025
.REGAP1  ANOP                                                    S22025
         BAL   1,IED&SYSNDX                                    @OY05441
         AGO   .DCP
.SMV     IEDQVCON (24,38,16),(IEDQAP,IEDQAF,IEDQAO)              S22025
         AIF (NOT &IEDQZA(14)).REGAP2                            S22025
         AIF   (&BIT(5)).SMV1                                   OX01435
         BAL   1,IED&SYSNDX                                    @OY05441
         AGO   .DCP1                                             S22025
.SMV1    ANOP                                                   OX01435
         BAL   1,IED&SYSNDX                                    @OY05441
         AGO   .DCP1                                            OX01435
.REGAP2  ANOP                                                    S22025
         AIF   (&BIT(5)).REGAP3                                 OX01435
         BAL   1,IED&SYSNDX                                    @OY05441
         AGO   .DCP                                              S22025
.REGAP3  ANOP                                                   OX01435
         BAL   1,IED&SYSNDX                                    @OY05441
         AGO   .DCP                                             OX01435
.DCP1    DC    AL1(&IEDQZE(55)),AL1(8),AL1(&IEDQZE(38))          S22025
         DC    AL1(&IEDQZE(16)+&AO)                              S22025
         DC    F'0'                     QCB FOR MSGEDIT          S22025
.DCP     DC    AL1(&IEDQZE(24)+&BIT(8)),AL1(&STAT(1)),AL1(&IEDQZE(38)),*
               AL1(&IEDQZE(16)+&AO)                              S22025
&T       SETB  0
.INS     AIF   (NOT &BIT(4) AND NOT &BIT(6)).AJ
         AIF   (&BIT(5) AND NOT &BIT(6)).IDLE .                 SA51770
&C       SETC  '&SYSECT'
IEDQMISC CSECT
         AIF   (&BIT(5)).TESTT .                                SA51770
         AIF   (&K(1) EQ 0).TESTT
         AIF   (&K(1) GT 8).SETM
&CH(1)   SETC  '&OP(1)'(&I(1),&K(1))
&CH(2)   SETC  ''
&CH(3)   SETC  ''
         AGO   .DCCH
.SETM    ANOP
&CH(1)   SETC  '&OP(1)'(&I(1),8)
         AIF   (&K(1) GT 16).SETC
&CH(2)   SETC  '&OP(1)'(&I(1)+8,&K(1)-8)
&CH(3)   SETC  ''
         AGO   .DCCH
.SETC    ANOP
&CH(2)   SETC  '&OP(1)'(&I(1)+8,8)
&CH(3)   SETC  '&OP(1)'(&I(1)+16,&K(1)-16)
.DCCH    DC    &CH(1).&CH(2).&CH(3) .   DATA FIELD
.TESTT   AIF   (NOT &BIT(6)).OUTC
         AIF   (&K(4) GT 8).SETM1
&CH(1)   SETC  '&OP(1)'(&I(4),&K(4))
&CH(2)   SETC  ''
&CH(3)   SETC  ''
         AGO   .DCCH1
.SETM1   ANOP
&CH(1)   SETC  '&OP(1)'(&I(4),8)
&K(4)    SETA  &K(4)-8
         AIF   (&K(4) GT 8).SETC1
&CH(2)   SETC  '&OP(1)'(&I(4)+8,&K(4))
&CH(3)   SETC  ''
         AGO   .DCCH1
.SETC1   ANOP
&CH(2)   SETC  '&OP(1)'(&I(4)+8,8)
&CH(3)   SETC  '&OP(1)'(&I(4)+16,&K(4)-8)
.DCCH1   DC    AL1(&D(4)),&CH(1).&CH(2).&CH(3) . TO FIELD
.OUTC    ANOP
&C       CSECT
 AIF (&BIT(5)).IDLE .                                           SA51770
         AIF   (&K(1) EQ 0).AJ
         DC    AL1(&D(1)),AL3(IEDQMISC+&IEDQZK) . DATA OPERAND
&IEDQZK  SETA  &IEDQZK+&D(1)
         AGO   .AJ
.IDLE    ANOP
&CH(1)   SETC  '&OP(1)'(&I(2),&K(2))
&WK      SETA  &CH(1)
&CH(1)   SETC  '&OP(1)'(&I(1),&K(1))
         DC    AL1(&WK),&CH(1),AL2(0) . IDLE INFORMATION
.AJ      AIF   (&M).MULTDC
         AIF   (&BIT(1)).AT
         AIF   (NOT &BIT(6)).AT
         DC    AL1(&IEDQZE(29)),X'08001040',AL3(IEDQMISC+&IEDQZK)
&IEDQZK  SETA  &IEDQZK+&D(4)+1                                   A41035
.AT      AIF   (&BIT(8)).TO
         AIF   (&K(3) EQ 0).TO
&CH(1)   SETC  '&OP(1)'(&I(3),&K(3))
&WK      SETA  &CH(1)
         DC    AL2(&WK) .               AT OFFSET
.TO      AIF   (&BIT(6) OR &BIT(1)).LOAD
         AIF   (&I(4) EQ 0).DCNOTO
&CH(1)   SETC  '&OP(1)'(&I(4),&K(4))
&WK      SETA  &CH(1)
         DC    AL2(&WK) .               TO OFFSET OR EXTENT
         AGO   .LOAD
.DCNOTO  DC    AL2(0) .                 TO DEFAULT OFFSET
         AGO   .LOAD
.MULTDC  ANOP
&CH(1)   SETC  '&OP(1)'(&I(3),&K(3))
&WK      SETA  &CH(1)
         DC    AL2(&WK),AL1(&IEDQZE(31))
&CH(1)   SETC  '&OP(1)'(&I(4),&K(4))
         DC    AL1(&CH(1))
         AGO   .LOAD
.BIGGEN  AIF   ('&BLANK' NE 'NO').ANBAL
&IEDQZA(29) SETB 1
.ANBAL   ANOP
&WK      SETA  N'&OP
         AIF   (&IEDQZA(14)).INBAN                               S22025
         BAL   1,*+16+8*&WK                                      S22025
         AGO   .REGAN                                            S22025
.INBAN   BAL   1,*+24+8*&WK                                      S22025
         DC    AL1(&IEDQZE(55)),AL1(8),AL1(&IEDQZE(38))          S22025
         DC    AL1(&IEDQZE(16)+&AO)                              S22025
         DC    F'0'                     QCB FOR MSGEDIT          S22025
.REGAN   ANOP                                                    S22025
         DC    AL1(&IEDQZE(15)+2*&IEDQZA(29)),AL1(12+8*&WK),AL1(&IEDQZE*
               (38)),AL1(&IEDQZE(16)+&AO),AL1(&IEDQZE(29))       S22025
&IEDQZA(29) SETB 0
         AIF   ('&BLANK' EQ '' OR '&BLANK' EQ 'NO' OR '&BLANK' EQ 'YES'*
               ).SETBLAN
         AIF   ('&BLANK'(K'&BLANK,1) EQ '''').DCBLAN
         DC    C'&BLANK'
         AGO   .ANENT
.DCBLAN  DC    &BLANK
         AGO   .ANENT
.SETBLAN DC    X'40'
.ANENT   DC    AL1(&WK),AL2(0),AL3(IEDQMISC+&IEDQZK)
&LEN     SETA  12
&N       SETA  1
&C       SETC  '&SYSECT'
&H       SETA  0
IEDQMISC CSECT
.LOOPDC  AIF   (&I(&H+1) EQ 0).LAT
         AIF   (&I(&H+2) NE 0).LAT
         AIF   (&K(&H+1) GT 8).LD1
&CH(1)   SETC  '&OP(&N)'(&I(&H+1),&K(&H+1))
&CH(2)   SETC  ''
&CH(3)   SETC  ''
         AGO   .LDE
.LD1     ANOP
&CH(1)   SETC  '&OP(&N)'(&I(&H+1),8)
         AIF   (&K(&H+1) GT 16).LD2
&CH(2)   SETC  '&OP(&N)'(&I(&H+1)+8,&K(&H+1)-8)
&CH(3)   SETC  ''
         AGO   .LDE
.LD2     ANOP
&CH(2)   SETC  '&OP(&N)'(&I(&H+1)+8,8)
&CH(3)   SETC  '&OP(&N)'(&I(&H+1)+16,&K(&H+1)-16)
.LDE     DC    AL1(&D(&H+1)),&CH(1).&CH(2).&CH(3) . DATA FIELD
.LAT     AIF   (&K(&H+3) GT 8).LA1
&CH(1)   SETC  '&OP(&N)'(&I(&H+3),&K(&H+3))
&CH(2)   SETC  ''
&CH(3)   SETC  ''
         AGO   .LAE
.LA1     ANOP
&CH(1)   SETC  '&OP(&N)'(&I(&H+3),8)
         AIF   (&K(&H+3) GT 16).LA2
&CH(2)   SETC  '&OP(&N)'(&I(&H+3)+8,&K(&H+3)-8)
&CH(3)   SETC  ''
         AGO   .LAE
.LA2     ANOP
&CH(2)   SETC  '&OP(&N)'(&I(&H+3)+8,8)
&CH(3)   SETC  '&OP(&N)'(&I(&H+3)+16,&K(&H+3)-16)
.LAE     DC    AL1(&D(&H+3)),&CH(1).&CH(2).&CH(3) . AT FIELD
         AIF   (&K(&H+4) EQ 0).NOTO
         AIF   ('&OP(&N)'(&I(&H+4),1) LT 'A' OR '&OP(&N)'(&I(&H+4),1) G*
               T 'Z').NOTO
         AIF   (&K(&H+4) GT 8).LT1
&CH(1)   SETC  '&OP(&N)'(&I(&H+4),&K(&H+4))
&CH(2)   SETC  ''
&CH(3)   SETC  ''
         AGO   .LTE
.LT1     ANOP
&CH(1)   SETC  '&OP(&N)'(&I(&H+4),8)
&WK      SETA  &K(&H+4)-8
         AIF   (&WK GT 8).LT2
&CH(2)   SETC  '&OP(&N)'(&I(&H+4)+8,&WK)
&CH(3)   SETC  ''
         AGO   .LTE
.LT2     ANOP
&CH(2)   SETC  '&OP(&N)'(&I(&H+4)+8,8)
&CH(3)   SETC  '&OP(&N)'(&I(&H+4)+16,&WK-8)
.LTE     AIF   ('&OP(&N)'(&I(&H+4)-1,1) NE '(').LTAE
         AGO   .NOTO
.LTAE    DC    AL1(&D(&H+4)),&CH(1).&CH(2).&CH(3) . TO FIELD
.NOTO    ANOP
&H       SETA  4*&N
&N       SETA  &N+1
         AIF   (&N LE N'&OP).LOOPDC
&C       CSECT
&N       SETA  1
&H       SETA  0
&OFF     SETA  0
.LOOPL   DC    AL1(&LEN),AL1(&STAT(&N))
         AIF   (&K(&H+2) NE 0).SETI
         DC    AL2(&OFF) .              DATA OFFSET
         AIF   (&D(&H+1) EQ 0).DCAT
&OFF     SETA  &OFF+1+&D(&H+1)
         AGO   .DCAT
.SETI    ANOP
&CH(1)   SETC  '&OP(&N)'(&I(&H+2),&K(&H+2))
&WK      SETA  &CH(1)
&CH(1)   SETC  '&OP(&N)'(&I(&H+1),&K(&H+1))
         DC    AL1(&WK),&CH(1) .        IDLE DATA
.DCAT    DC    AL2(&OFF) .              AT OFFSET
&OFF     SETA  &OFF+1+&D(&H+3)
         AIF   (&D(&H+4) EQ 0).SET0
         AIF   ('&OP(&N)'(&I(&H+4),1) LT 'A' OR '&OP(&N)'(&I(&H+4),1) G*
               T 'Z').FIX
         DC    AL2(&OFF) .              TO OFFSET
&OFF     SETA  &OFF+1+&D(&H+4)
         AGO   .SETK
.SET0    DC    AL2(0) .                 NO TO FIELD SPECIFIED
         AGO   .SETK
.FIX     ANOP
&CH(1)   SETC  '&OP(&N)'(&I(&H+4),&K(&H+4))
&WK      SETA  &CH(1)
         DC    AL2(&WK)
         AIF   (&D(&H+2) NE 0).SPLKA
.SPLKC   AIF   (&D(&H+1) EQ 0).SPLKA
&IEDQZK  SETA  &IEDQZK+&D(&H+1)+&D(&H+3)+2
         AGO   .FIXLEN
.SETK    AIF   (&D(&H+1) EQ 0).SPLKB
         AIF   (&D(&H+2) NE 0).SPLKB
         AIF   (&D(&H+4) EQ 0).SPLKC
&IEDQZK  SETA  &IEDQZK+&D(&H+1)+&D(&H+3)+&D(&H+4)+3
         AGO   .FIXLEN
.SPLKA   ANOP
&IEDQZK  SETA  &IEDQZK+&D(&H+3)+1
         AGO   .FIXLEN
.SPLKB   ANOP
         AIF   (&D(&H+4) EQ 0).SPLKA
&IEDQZK  SETA  &IEDQZK+&D(&H+3)+&D(&H+4)+2
.FIXLEN  ANOP
&LEN     SETA  &LEN+8
&H       SETA  4*&N
&N       SETA  &N+1
         AIF   (&N LE N'&OP).LOOPL
.LOAD    ANOP                                                  @OY05441
IED&SYSNDX L   15,IEDUI                                        @OY05441
         BALR  14,15
.MEND    SPACE 2
         MEND
