         MACRO
&NAME    OUTBUF &PATH=
         GBLA  &IEDQZE(64)
         GBLB  &IEDQZA(64)
         GBLC  &IEDQZC,&IEDQZJ
         LCLB  &NOGO
.*             VERSION DATED SEPTEMBER 28, 1970
         SPACE
&IEDQZA(6) SETB 1
         AIF   (NOT &IEDQZA(46)).ERR1
         AIF   (NOT &IEDQZA(28)).SEQ
.ERR1    MNOTE 12,'***  IHB070  SEQUENCE ERROR - MUST FOLLOW STARTMH MA*
               CRO'
&NOGO    SETB  1
.SEQ     AIF   (NOT &IEDQZA(1)).PARM
         MNOTE 12,'***  IHB070  SEQUENCE ERROR - MUST NOT FOLLOW INCOMIN
               NG DELIMITER GROUP'
&NOGO    SETB  1
.PARM    AIF   ('&PATH' EQ '').GLOB
         AIF   ('&PATH(1)' EQ '' OR '&PATH(2)' EQ '').ERR
         AIF   ('&PATH(2)' EQ '0' OR '&PATH(2)' EQ 'X''0''' OR '&PATH(2*
               )' EQ 'X''00''' OR '&PATH(2)'(1,2) EQ 'XL').ERR
         IEDQMASK &PATH(2),1
         AIF   (NOT &IEDQZA(24)).GLOB
.ERR     MNOTE 12,'***  IHB300  PATH OPERAND INVALID AS SPECIFIED'
&NOGO    SETB  1
.GLOB    AIF   (&NOGO).MEND
         AIF   ('&NAME' EQ '').NON
&NAME    DS    0H
.NON     ANOP
&IEDQZA(1) SETB 0
&IEDQZA(2) SETB 1
&IEDQZA(3) SETB 0
&IEDQZA(4) SETB 0
&IEDQZA(5) SETB 0
&IEDQZC  DS    0H
&IEDQZC  SETC  'IEDS'.'&SYSNDX'
         AIF   (NOT &IEDQZA(20) OR '&IEDQZJ' EQ '').A
&IEDQZJ  DS    0H
.A       AIF   ('&PATH' EQ '').MEND
         LOCOPT &PATH(1)
         AIF   (&IEDQZA(61)).MEND
         LTR   15,15 .                  OPTION FIELD FOUND
         BZ    &IEDQZC .                NO - GO TO NEXT DELIM
         TM    0(15),&PATH(2) .         PATH SWITCHES ON
         BZ    &IEDQZC .                NO - GO TO NEXT DELIM
.MEND    SPACE 2
&IEDQZJ  SETC  ''
&IEDQZA(20) SETB 0
         MEND
