         MACRO
&NAME    OUTEND
         GBLB  &IEDQZA(64)
         GBLC  &IEDQZC
.*             VERSION DATED SEPTEMBER 22, 1970
.*A545000                                                        S22026
         SPACE
&IEDQZA(6) SETB 0
         AIF   ('&NAME' EQ '').NON
&NAME    DS    0H
.NON     AIF   (&IEDQZA(11)).GLOB
         OUTMSG
.GLOB    ANOP
&IEDQZA(1) SETB 0
&IEDQZA(2) SETB 0
&IEDQZA(3) SETB 0
&IEDQZA(4) SETB 0
&IEDQZA(5) SETB 0
&IEDQZA(25)    SETB 0 .                                          S22026
&IEDQZA(26) SETB 0
&IEDQZA(46) SETB 0
&IEDQZC  DC    AL1(1),X'00'
&IEDQZC  SETC  'IEDS'.'&SYSNDX'
&IEDQZA(28) SETB 0
         SPACE 2
         MEND
