         MACRO
&NAME    OUTMSG &PATH=
         GBLA  &IEDQZE(64)
         GBLB  &IEDQZA(64)
         GBLC  &IEDQZC,&IEDQZJ
         LCLB  &NOGO
.*             VERSION DATED JANUARY 12, 1973
.*C435000-440000                                                 S22026
.*A515000,525000,541000-545000                                   S22026
.*C542000,546000,549000                                         SA59170
         SPACE
&IEDQZA(6) SETB 1
         AIF   (&IEDQZA(46)).OK
         MNOTE 12,'***  IHB070  SEQUENCE ERROR - MUST FOLLOW STARTMH MA*
               CRO'
&NOGO    SETB  1
.OK      AIF   ('&PATH' EQ '').CHK
         AIF   ('&PATH(1)' EQ '' OR '&PATH(2)' EQ '').ERR
         AIF   ('&PATH(2)' EQ '0' OR '&PATH(2)' EQ 'X''00''' OR '&PATH(*
               2)' EQ 'X''0''' OR '&PATH(2)'(1,2) EQ 'XL').ERR
         IEDQMASK &PATH(2),1
         AIF   (NOT &IEDQZA(24)).CHK
.ERR     MNOTE 12,'***  IHB300  PATH OPERAND INVALID AS SPECIFIED'
&NOGO    SETB  1
.CHK     AIF   (&NOGO).MEND
         AIF   (NOT &IEDQZA(28)).BITS
         DC    X'0100'
.BITS    AIF   ('&NAME' EQ '').ZJ
&NAME    DS    0H
.ZJ      AIF   (NOT &IEDQZA(20)).NON
         AIF   ('&IEDQZJ' EQ '').NON
&IEDQZJ  DS    0H
.NON     ANOP
&IEDQZC  DS    0H
&IEDQZC  SETC  'IEDS'.'&SYSNDX'
&IEDQZA(1) SETB 0
&IEDQZA(2) SETB 1
&IEDQZA(3) SETB 0
&IEDQZA(4) SETB 0
&IEDQZA(5) SETB 1
.TP      AIF   ('&PATH' EQ '').OUT
         LOCOPT &PATH(1)
         AIF   (&IEDQZA(61)).MEND
         LTR   15,15 .                  OPTION FIELD FOUND
         BZ    &IEDQZC .                NO - GO TO NEXT DELIM
         TM    0(15),&PATH(2) .         PATH SWITCHES ON
         BZ    &IEDQZC .                NO - GO TO NEXT DELIM
.OUT     AIF   ((&IEDQZA(26) AND (&IEDQZA(25))) OR (&IEDQZA(25) AND (NOX
               T &IEDQZA(26)))).NOP                              S22026
         CNOP  2,4 .                                             S22025
         AGO   .PATH
.NOP     CNOP  0,4 .                                             S22025
.PATH    AIF   ('&PATH' NE '').SET
&IEDQZA(11) SETB 1
.SET     L     15,IEDUI .               INMSG/OUTMSG ROUTINE
         BALR  1,15
         AIF   (&IEDQZA(25)).GH .                                S22026
         AIF   (&IEDQZA(26)).MSF
.A4      ANOP .                                                  S22026
         DC    AL1(&IEDQZE(33)),AL1(4),AL2(0) .                  S22025
         AGO   .MEND
.GH      ANOP .                                                  S22026
         DC    AL1(&IEDQZE(51)+1),AL1(2)                        SA59170
         AIF   (NOT &IEDQZA(26)).A4 .                            S22026
         ORG   *-1 .                                             S22026
         AIF   (&IEDQZA(26) AND &IEDQZA(23)).LEN .               S22026
         DC    AL1(6)                                           SA59170
         AGO   .MSF .                                            S22026
.LEN     ANOP .                                                  S22026
         DC    AL1(10)                                          SA59170
.MSF     ANOP                                                    S22025
         AIF   (&IEDQZA(23)).VARBLK    VARIABLE BLOCK            S22025
         DC   AL1(&IEDQZE(47)),AL1(4),AL1(&IEDQZE(38)),AL1(&IEDQZE(16))
         AGO   .FINISH                                           S22025
.VARBLK  ANOP
         DC   AL1(&IEDQZE(47)),AL1(8),AL1(&IEDQZE(38)),AL1(&IEDQZE(16))
         DC    V(IEDQAX)                                         S22025
.FINISH  ANOP                                                    S22025
         DC    AL1(&IEDQZE(33)),AL1(4),AL2(0) .                  S22025
.MEND    SPACE 2
&IEDQZJ  SETC  ''
&IEDQZA(6) SETB 0
&IEDQZA(20) SETB 0
&IEDQZA(28) SETB 1
         MEND
