         MACRO
&NAME    STARTMH &LC=,&STOP=,&CONT=,&CONV=,&LOGICAL=,&TSOMH=NO,&BREG=1,*
               &LMD=,&ALTMH=                                     S22029
         GBLA  &IEDQZE(64)
         GBLB  &IEDQZA(64)
         GBLC  &IEDQZB,&IEDQZC,&IEDQZG,&IEDQZH,&IEDQZI,&IEDQZJ
         GBLC  &IEDQZ1                                          SA51769
         LCLA  &LEN,&IX,&T,&R,&OP(11),&X(10),&LMDB               S22025
         LCLB  &FLG(8),&NOGO
         LCLC  &C,&B(3),&G,&H                                    S22026
.*A046000,058000,060400-063200,710000                            S22029
.*C009000,039200,457000-462000                                   S22029
.*D094000,452000-456000,548000                                   S22029
.*D212400                                                       SA55404
.*D408000                                                        S22029
.*C032000,496000,500000,508000,512000                            S22026
.*A492500-494500,500500                                          S22026
.*C036000,388000                                                 CLUP21
.*A212000,260000                                                 S22025
.*C524000,644000,540000,544000,584000,592000                     S22025
.*D348000-356000                                                SA51768
.*A344000                                                       SA51768
.*A020000,696000                                                SA51769
.*A214060-214120                                                SA57357
.*C039600,212320,213700                                         SA57357
.*D039200                                                       SA57357
.*C039200,262000                                                SA55926
.*A542000,544000                                               @YA09290
.*       VERSION DATED APRIL 21, 1975                          @YA09290
.*       &IEDQZA(9) - BIT SET FOR TIME SHARING MH                   TSO
.*       &IEDQZG - SAVES NAME OF STARTMH MACRO FOR LOGON            TSO
.*       &IEDQZH - SAVES &BREG= VALUE FOR LOGON                  S22029
         SPACE
&IEDQZI  SETC  ''                                                   TSO
&IEDQZH  SETC  ''                                                   TSO
&IEDQZG  SETC  '&NAME'                                           S22029
&IEDQZA(9) SETB 0
         AIF   ('&ALTMH' EQ '').ALTMHOK                          S22029
         IEDQCHAR 8,&ALTMH                                       S22029
         AIF   (&IEDQZA(24)).ALTMERR                             S22029
         AIF   ('&ALTMH' EQ '&NAME').ALTMERR                     S22029
         AGO   .ALTMHOK                                          S22029
.ALTMERR MNOTE 12,'*** IHB300 ALTMH OPERAND INVALID AS SPECIFIED' 22029
&NOGO    SETB  1                                                 S22029
.ALTMHOK ANOP                                                    S22029
         AIF   ('&NAME' NE '').BREG
         MNOTE 12,'*** IHB076  MACRO NAME FIELD BLANK - NAME REQUIRED'
&NOGO    SETB  1
.BREG    AIF   ('&BREG' EQ '').CLC
         AIF   ('&BREG' GE '1' AND '&BREG' LE '11').CLC
         MNOTE 12,'***  IHB300  BASEREG OPERAND INVALID AS SPECIFIED'
&NOGO    SETB  1
.CLC     AIF   ('&LC' NE '').CKLC
         MNOTE 12,'***  IHB001  LC OPERAND REQ''D - NOT SPECIFIED'
&NOGO    SETB  1
         AGO   .CSC
.CSTOP   AIF   ('&CONT' NE '' AND '&STOP' NE '').ERR
&FLG(8)  SETB  1
&FLG(2)  SETB  ('&STOP' EQ '')
         AIF   ('&STOP' EQ 'YES' OR '&CONT' EQ 'YES').CCNV
&FLG(3)  SETB  1
         AIF   ('&STOP' EQ '').CONT
         AIF   ('&STOP(1)' NE '' AND '&STOP(2)' NE '').STOP
.SERR    MNOTE 12,'***  IHB300  STOP OPERAND INVALID AS SPECIFIED'
&NOGO    SETB  1
         AGO   .CTSO
.STOP    AIF   ('&STOP(1)'(K'&STOP(1),1) EQ ')' OR '&STOP(1)'(K'&STOP(1*
               ),1) EQ '''').SERR
         AIF   (K'&STOP(1) GT 8).SERR
         IEDQMASK &STOP(2),1
         AIF   (&IEDQZA(24)).SERR
         AGO   .CCNV
.CONT    AIF   ('&CONT(1)' NE '' AND '&CONT(2)' NE '').CTEST
.CERR    MNOTE 12,'***  IHB300  CONT OPERAND INVALID AS SPECIFIED'
&NOGO    SETB  1
         AGO   .CTSO
.CTEST   AIF   ('&CONT(1)'(K'&CONT(1),1) EQ ')' OR '&CONT(1)'(K'&CONT(1*
               ),1) EQ '''').CERR
         AIF   (K'&CONT(1) GT 8).CERR
         IEDQMASK &CONT(2),1
         AIF   (&IEDQZA(24)).CERR
         AGO   .CCNV
.CKLC    ANOP
         AIF   ('&LMD' EQ '' OR '&LMD' EQ 'NO').GOON             S22025
&LMDB    SETA  1                                                 S22025
         AIF   ('&LMD' EQ 'YES').SETYES                         SA57357
         AIF   ('&LMD(1)'(K'&LMD(1),1) EQ ')' OR '&LMD(1)'(K'&LMD(1),1)X
                EQ '''').LMDERR                                  S22025
         AIF   (K'&LMD(1) GT 8).LMDERR                           S22025
         IEDQMASK &LMD(2),1                                      S22025
         AIF   (&IEDQZA(24)).LMDERR                              S22025
&LMDB    SETA  3                                                 S22025
         AGO   .SETYES                                          SA57357
.LMDERR  MNOTE 12,'*** IHB300  LMD OPERAND INVALID AS SPECIFIED' S22025
&NOGO    SETB  1                                                 S22025
.SETYES  ANOP                                                   SA57357
&IEDQZA(48)  SETB 1                                             SA57357
.GOON    ANOP                                                    S22025
&FLG(1)  SETB  ('&LC' EQ 'IN')
         AIF   ('&LC' EQ 'OUT' OR &FLG(1) EQ 1).CSC
.LCERR   MNOTE 12,'***  IHB300  LC OPERAND INVALID AS SPECIFIED'
&NOGO    SETB  1
.CSC     ANOP
         AIF   ('&STOP' NE '' OR '&CONT' NE '').CSTOP
         AIF   ('&CONV' EQ '' AND '&LOGICAL' EQ '').CTSO
.ERR     MNOTE 12,'***  IHB066  INCONSISTENT OPERANDS'
&NOGO    SETB  1
.CCNV    AIF   ('&CONV' EQ '' OR '&CONV' EQ 'NO').CLG
&FLG(4)  SETB  1
&FLG(5)  SETB  ('&CONV' NE 'YES')
         AIF   (NOT &FLG(5)).CLG
         AIF   ('&LMDB' EQ '3').INCON                           SA55926
         AIF   ('&CONV(1)' NE '' AND '&CONV(2)' NE '').VTEST
.VERR    MNOTE 12,'***  IHB300  CONV OPERAND INVALID AS SPECIFIED'
&NOGO    SETB  1
         AGO   .CLG
.INCON   MNOTE 12,'*** IHB066 INCONSISTENT OPERANDS'            SA55926
&NOGO    SETB  1                                                SA55926
         AGO   .CLG                                             SA55926
.VTEST   AIF   ('&CONV(1)'(K'&CONV(1),1) EQ ')' OR '&CONV(1)'(K'&CONV(1*
               ),1) EQ '''').VERR
         AIF   (K'&CONV(1) GT 8).VERR
         IEDQMASK &CONV(2),1
         AIF   (&IEDQZA(24)).VERR
.CLG     AIF   ('&LOGICAL' EQ '').CTSO
&FLG(6)  SETB  1
         AIF   ('&LOGICAL(2)' NE '' AND ('&LOGICAL(1)' EQ '' OR '&LOGIC*
               AL(3)' EQ '')).LERR
         AIF   ('&LOGICAL(3)' NE '' AND ('&LOGICAL(1)' EQ '' OR '&LOGIC*
               AL(2)' EQ '')).LERR
         AIF   (K'&LOGICAL(1) LE 8).OP2
.LERR    MNOTE 12,'***  IHB300  LOGICAL OPERAND INVALID AS SPECIFIED'
&NOGO    SETB  1
         AGO   .CTSO
.OP2     AIF   ('&LOGICAL(2)' EQ '').CTSO
&FLG(7)  SETB  1
         AIF   ('&LOGICAL(2)'(K'&LOGICAL(2),1) EQ ')').LERR     SA51768
         AIF   ('&LOGICAL(2)'(1,1) NE 'X').OP3                  SA51768
         AIF   ('&LOGICAL(2)'(2,1) NE '''').LERR                SA51768
.OP3     AIF   (K'&LOGICAL(2) GT 8).LERR                        SA51768
         IEDQMASK &LOGICAL(2),1
         AIF   (&IEDQZA(24)).LERR
         AIF   ('&LOGICAL(3)' EQ '').CTSO
         AIF   ('&LOGICAL(3)'(K'&LOGICAL(3),1) EQ ')' OR '&LOGICAL(3)'(K
               K'&LOGICAL(3),1) EQ '''').LERR
         AIF   (K'&LOGICAL(3) GT 8).LERR
.CTSO    AIF   ('&TSOMH' EQ 'YES' OR '&TSOMH' EQ 'NO').TSOMH        TS
.TSOER   ANOP
         AIF   (&IEDQZA(51) OR &IEDQZA(52)).TSOMHER              CLUP21
         MNOTE 12,'***  IHB070  SEQUENCE ERROR - MUST FOLLOW INTRO     X
               MACRO'                                            CLUP21
         AGO   .MEND                                             CLUP21
.TSOMHER MNOTE 12,'***  IHB300  TSOMH OPERAND INVALID AS SPECIFIED'
.* PRECEDING STATEMENT CHANGED FOR RELEASE 21 CLEANUP            CLUP21
         AGO   .MEND                                                TSO
.TSOMH   AIF   ('&TSOMH' EQ 'NO').NOTSO
         AIF   (NOT &IEDQZA(51)).TSOER                              TSO
&IEDQZA(9) SETB 1                                                   TSO
         AGO   .ONWARD                                              TSO
.NOTSO   AIF   (NOT &IEDQZA(52)).TSOER                              TSO
.ONWARD  AIF   (&NOGO).MEND
&IEDQZA(1) SETB 0
&IEDQZA(2) SETB 0
&IEDQZA(3) SETB 0
&IEDQZA(4) SETB 0
&IEDQZA(5) SETB 0
&IEDQZA(46) SETB 1
         CNOP  0,4
         AIF   ('&ALTMH' EQ '').NOALTMH                          S22029
         DC    AL1(0),AL3(&ALTMH)      ALTMH FOR MIXED ENVIRON   S22029
         AGO   .ALTCONT                                          S22029
.NOALTMH ANOP                                                    S22029
         DC    A(0)                    NO ALTMH FOR MIXED ENVIRONS22029
.ALTCONT ANOP                                                    S22029
         DC    B'&FLG(1)&FLG(2)&FLG(3)&FLG(4)&FLG(5)&FLG(6)&FLG(7)&IEDQZ
               ZA(9)'
         DC    AL3(0)
&NAME    EQU   *-8
&C       SETC  'IEDAYR'
         AIF   (&IEDQZA(51) EQ &IEDQZA(52)).DN
&C       SETC  'IEDQAA'
         AIF   (&IEDQZA(52)).DN
&C       SETC  'IEDAYR'
.DN      AIF   (&IEDQZA(13)).CONC                                S22026
&H       SETC  'BD'                                              S22026
         AGO   .DNX                                              S22026
.CONC    ANOP                                                    S22026
&H       SETC  'BH'                                              S22026
.DNX     AIF   (&IEDQZA(51)).BIGVCON                             S22026
         IEDQVCON (1,33,14,30,18),(IEDQ&H,IEDQA4,IEDQA1,IEDQAI,IEDQAV)
.*                                                               S22026
         AGO   .ZB                                                  TSO
.BIGVCON IEDQVCON (1,33,14,30,18,31),(IEDQ&H,IEDQA4,IEDQA1,IEDQAI,IEDQA*
               V,IEDQAE)                                         S22026
.ZB      ANOP                                                       TSO
&IEDQZB  SETC  '&C'
&FLG(1)  SETB  (&FLG(3) EQ 0 AND &FLG(5) EQ 0 AND &FLG(6) EQ 0 AND &LMDX
               B LT 3)                                           S22025
         AIF   (&FLG(1)).NOOPT
&LEN     SETA  &LEN+2
.NOOPT   ANOP
&LEN     SETA  (&LEN+(2*(&FLG(7)+&FLG(5)+&FLG(3)+(&LMDB/2)))+&FLG(6)+19X
               )/4*4                                             S22025
         AIF   (&IEDQZA(51) EQ &IEDQZA(52)).MIXED              @YA09290
         AIF   (NOT &FLG(8) AND '&LMDB' EQ '0').NOEOB            S22025
.MIXED   ANOP                                                  @YA09290
&IEDQZB  SETC  'IEDQBT'
.NOEOB   DC    AL1(&LEN),VL3(&IEDQZB)
&LEN     SETA  0
         AIF   (&FLG(1)).NOAE
         IEDQVCON (31),(IEDQAE)
&LEN     SETA  &IEDQZE(31)
.NOAE    DC    AL1(&LEN+&LMDB),VL3(&C)                           S22025
         AIF   (&LEN EQ 0).BRN
&LEN     SETA  (&FLG(6)*(2*(&FLG(3)+&FLG(5)+(&LMDB/2))))         S22025
         DC    AL1(&LEN)
&LEN     SETA  (&FLG(3)*(2*(&FLG(5)+(&LMDB/2))))                 S22025
         DC    AL1(&LEN)
         AIF   (NOT &FLG(3)).GCONV
         AIF   (&FLG(2)).GCONT
         AIF   ('&STOP(2)'(1,1) EQ 'X').SX
         DC    AL1(&STOP(1)),AL1(&STOP(2)) . STOP VALUES
         AGO   .GCONV
.SX      DC    AL1(&STOP(1)),&STOP(2) . STOP VALUES
         AGO   .GCONV
.GCONT   AIF   ('&CONT(2)'(1,1) EQ 'X').CX
         DC    AL1(&CONT(1)),AL1(&CONT(2)) . CONTINUE VALUES
         AGO   .GCONV
.CX      DC    AL1(&CONT(1)),&CONT(2) . CONTINUE VALUES
.GCONV   AIF   ('&LMDB' NE '3').TRYCONV                          S22025
         AIF   ('&LMD(2)'(1,1) EQ 'X').LXX                       S22025
         DC    AL1(&LMD(1)),AL1(&LMD(2)) . LMD VALUES            S22025
         AGO   .GLOGI                                            S22025
.LXX     DC    AL1(&LMD(1)),&LMD(2)     . LMD VALUES             S22025
         AGO   .GLOGI                                            S22025
.TRYCONV AIF   (NOT &FLG(5)).GLOGI                               S22025
         AIF   ('&CONV(2)'(1,1) EQ 'X').VX
         DC    AL1(&CONV(1)),AL1(&CONV(2)) . CONVERSE VALUES
         AGO   .GLOGI
.VX      DC    AL1(&CONV(1)),&CONV(2) . CONVERSE VALUES
.GLOGI   AIF   (NOT &FLG(6)).BRN
         AIF   ('&LOGICAL(3)' EQ '').LG1
         AIF   ('&LOGICAL(2)'(1,1) EQ 'X').LX
         DC    AL1(&LOGICAL(1)),AL1(&LOGICAL(2)),AL1(&LOGICAL(3))
         AGO   .BRN
.LX      DC    AL1(&LOGICAL(1)),&LOGICAL(2),AL1(&LOGICAL(3))
         AGO   .BRN
.LG1     DC    AL1(&LOGICAL(1))
.BRN     DS    0F
         AIF   (NOT &IEDQZA(47)).BREG1                          SA51769
&IX      SETA  1                                                SA51769
&T       SETA  &IEDQZ1                                          SA51769
&R       SETA  12                                               SA51769
.LOOP1   ANOP                                                   SA51769
&OP(&IX) SETA  &R                                               SA51769
&T       SETA  &T-1                                             SA51769
&R       SETA  &R-1                                             SA51769
&IX      SETA  &IX+1                                            SA51769
         AIF   (&T NE 0).LOOP1                                  SA51769
&T       SETA  &IEDQZ1                                          SA51769
&IX      SETA  1                                                SA51769
&B(1)    SETC  '&OP(&IX)'                                       SA51769
&T       SETA  &T-1                                             SA51769
.DLOOP1  AIF   (&T EQ 0).DP1                                    SA51769
&IX      SETA  &IX+1                                            SA51769
         AIF   (&IX GT 3).B21                                   SA51769
&B(1)    SETC  '&B(1)'.','.'&OP(&IX)'                           SA51769
&T       SETA  &T-1                                             SA51769
         AGO   .DLOOP1                                          SA51769
.B21     ANOP                                                   SA51769
&B(2)    SETC  '&B(2)'.','.'&OP(&IX)'                           SA51769
&T       SETA  &T-1                                             SA51769
&IX      SETA  &IX+1                                            SA51769
         AIF   (&T EQ 0).DP1                                    SA51769
         AIF   (&IX GT 7).B31                                   SA51769
         AGO   .B21                                             SA51769
.B31     ANOP                                                   SA51769
&B(3)    SETC  '&B(3)'.','.'&OP(&IX)'                           SA51769
&T       SETA  &T-1                                             SA51769
&IX      SETA  &IX+1                                            SA51769
         AIF   (&T NE 0).B31                                    SA51769
.DP1     DROP  &B(1).&B(2).&B(3)                                SA51769
.BREG1   ANOP                                                   SA51769
&IEDQZA(47) SETB 1                                              SA51769
&IEDQZ1  SETC  '&BREG'                                          SA51769
&B(1)    SETC  ''                                               SA51769
&B(2)    SETC  ''                                               SA51769
&B(3)    SETC  ''                                               SA51769
         USING IEDSAVE2,13
&IX      SETA  1
&G       SETC  '&BREG'
&IEDQZH  SETC  '&BREG'                                           S22029
&T       SETA  &G
&R       SETA  12
.LOOP    ANOP
&OP(&IX) SETA  &R
&T       SETA  &T-1
&R       SETA  &R-1
&IX      SETA  &IX+1
         AIF   (&T NE 0).LOOP
&T       SETA  &G
&IX      SETA  1
&B(1)    SETC  '&OP(&IX)'
&T       SETA  &T-1
.ULOOP   AIF   (&T EQ 0).US
&IX      SETA  &IX+1
         AIF   (&IX GT 3).B2
&B(1)    SETC  '&B(1)'.','.'&OP(&IX)'
&T       SETA  &T-1
         AGO   .ULOOP
.B2      ANOP
&B(2)    SETC  '&B(2)'.','.'&OP(&IX)'
&T       SETA  &T-1
&IX      SETA  &IX+1
         AIF   (&T EQ 0).US
         AIF   (&IX GT 7).B3
         AGO   .B2
.B3      ANOP
&B(3)    SETC  '&B(3)'.','.'&OP(&IX)'
&T       SETA  &T-1
&IX      SETA  &IX+1
         AIF   (&T NE 0).B3
.US      USING *,&B(1).&B(2).&B(3)
&T       SETA  &G
&IX      SETA  1
&IEDQZB  SETC  'IEDR'.'&SYSNDX'
&IEDQZC  SETC  'IEDS'.'&SYSNDX'
.LALOOP  AIF   (&T EQ 1).BO
&X(&IX)  SETA  &OP(&IX+1)
         LA    &X(&IX),0(2,&OP(&IX))
&T       SETA  &T-1
&IX      SETA  &IX+1
         AGO   .LALOOP
.BO      BCR   4,15
         BO    &IEDQZC
.MEND    SPACE 2
&IEDQZJ  SETC  ''
&IEDQZA(6) SETB 0
&IEDQZA(10) SETB 0
&IEDQZA(11) SETB 0
&IEDQZA(12) SETB 0
&IEDQZA(15) SETB 0
&IEDQZA(16) SETB 0
&IEDQZA(18) SETB 0
&IEDQZA(20) SETB 0
&IEDQZA(27) SETB 0
&IEDQZA(28) SETB 0
         MEND
