         MACRO
&NAME    TLIST &TYPE=,&LIST=,&XX=(A,B,C,D,E,F)
         GBLA  &IEDQAR(64)
         GBLB  &IEDQZA(64)
         GBLC  &IEDQSV(8)
         LCLA  &A,&S,&X,&Y
         LCLB  &NO
         LCLC  &V
.*  CHANGE ACTIVITY AS FOLLOWS
.******************* MICROFICHE FLAGS *********************** SUPT CODE
.*C730000                                                        S21101
.*C790000                                                       SA59174
.*A690000                                                       OX01426
.*C790000                                                       SA59174
         AIF   ('&NAME' NE '').C0
         MNOTE 12,'*** IHB076 MACRO NAME FIELD BLANK- NAME REQUIRED'
&NO      SETB  1
.C0      AIF   ('&LIST' NE '').C1
.ERR1    MNOTE 12,'*** IHB004 REQUIRED OPERAND(S) NOT SPECIFIED'
         SPACE 2
         MEXIT
.C1      AIF   (&A EQ N'&LIST-1).EN
&A       SETA  &A+1
         AIF   ('&LIST(&A)' NE '').C1
         MNOTE 12,'*** IHB001 LIST OPERAND &A REQ''D- NOT SPECIFIED'
&NO      SETB  1
         AGO   .C1
.EN      AIF   (&IEDQAR(10) EQ 0).OK
         AIF   (&IEDQAR(10) EQ 1 AND '&NAME' EQ '&IEDQSV(1)').CON
         IEDQGCH 1
.OK      AIF   ('&TYPE' EQ '').ERR1
         AIF   (&IEDQZA(55)).O2
         AIF   (&IEDQZA(54) EQ &IEDQZA(55) AND &IEDQZA(53) EQ &IEDQZA(5*
               4)).NOTAB
         MNOTE 12,'*** IHB315 SEQUENCE ERROR- MUST PRECEDE LAST ENTRY  *
                SPECIFIED BY TTABLE MACRO'
         AGO   .SETNO
.NOTAB   MNOTE 12,'*** IHB070 SEQUENCE ERROR- MUST FOLLOW TTABLE MACRO'
.SETNO   ANOP
&NO      SETB  1
.O2      SPACE 2
         AIF   ('&TYPE' EQ 'C' OR '&TYPE' EQ 'D').GO
.ERR2    MNOTE 12,'*** IHB002 INVALID TYPE OPERAND SPECIFIED- &TYPE'
         SPACE 2
&NO      SETB  1
.GO      AIF   (&NO).EXT
&IEDQAR(5) SETA  0
&IEDQZA(54)  SETB  1
&NAME    IEDQTT
         DC    BL1'01001000'
         AIF   ('&TYPE' EQ 'C').CAS
         DC    VL3(IEDQBC)
.DLS     ANOP
&S       SETA  1
.CKN     ANOP
&A       SETA  N'&LIST
&IEDQAR(10) SETA 0
&V       SETC  'IED'.'&IEDQAR(4)'.'&XX(&IEDQAR(7))'
&Y       SETA  &A+&X
         AIF   (&X EQ 0).NORG1
         ORG   &V+4
.NORG1   AIF   ('&LIST(N'&LIST)' NE '').END
&IEDQAR(10) SETA 1
&Y       SETA  &Y-1
&A       SETA  &A-1
&IEDQAR(5)  SETA  &IEDQAR(5)+&A
.END     DC    AL2(&Y) .                COUNT OF TLIST ENTRIES
         AIF   (&X EQ 0).NORG2
         ORG
.NORG2   ANOP
&Y       SETA  82-&IEDQAR(1)
.CONT    DC    AL2((&LIST(&S)-IEDQTNT-&Y)/&IEDQAR(1))
&S       SETA  &S+1
         AIF   (&S LE &A).CONT
         SPACE 2
         AIF   ('&NAME' NE '&IEDQSV(5)').EXT
         AIF   ('&LIST(N'&LIST)' EQ '').MEXT                    OX01426
         IEDNOL ,                                                S99528
&IEDQZA(55) SETB   0
         AIF   (&IEDQAR(33) EQ 0 AND &IEDQAR(34) EQ 0).CSND
         ORG   IEDNADDR
         DC    A(&IEDQAR(34)*4+1),A(&IEDQAR(33)*4+3) .           S21101
         ORG
.CSND    AIF   (&IEDQAR(10) NE 0).EXT
IEDQOPT  CSECT
IEDQOPTN DC    AL2(&IEDQAR(15))
&IEDQSV(4) CSECT
.EXT     AIF   ('&LIST(N'&LIST)' EQ '').MEXT                    SA59174
&IEDQAR(5) SETA 0                                               SA59174
.MEXT    MEXIT                                                  SA59174
.CAS     DC    VL3(IEDQBG)
         AGO   .DLS
.CON     ANOP
&S       SETA  1
&X       SETA  &IEDQAR(5)
         AGO   .CKN
         MEND
