         MACRO
&NAME    TPROCESS   &PCB=,&QUEUES=,&ALTDEST=,&OPDATA=,&SECTERM=NO,     *
               &SYNC=NO,&CKPTSYN=NO,&X=(A,B,C,D,E,F),&SECURE=NO, S22024*
               &QS=(DN,DR,MO,MR,MN,34,18,66,82,98),&LEVEL=(0),         *
               &RECDEL=00,&DATE=NO,&QBACK=NO                     S22027
         GBLB  &IEDQZA(64)
         GBLB  &IEDQFL(16)                                       S22025
         GBLA  &IEDQAR(64)
         GBLC  &IEDQSV(8)
         LCLA  &A,&L
         LCLB  &NO,&B(8)
         LCLB  &SEC                                              S22024
         LCLC  &V
.*  CHANGE ACTIVITY AS FOLLOWS
.******************* MICROFICHE FLAGS *********************** SUPT CODE
.*A553000                                                        S22027
.*C035000,553000                                                 S22027
.*A840000                                                        S99528
.*A080000,493000,500000                                          S22029
.*A490000,497000                        CHANGED 10/15/71         A44888
.*C868000                                                        S21101
.*A519000-524000,556000                                          S22025
.*C035000,511000                                                 S22025
.*D707000                                                        S22025
.*A602000                                                       SA63593
&IEDQFL(9) SETB 0                                                S22025
.*A070000,553020-553120                CHANGED 09/25/72          S22024
.*C553900,555100                       CHANGED 09/25/72          S22024
.*C521000-524000                                               @OY15040
         AIF   (&IEDQAR(10) EQ 0).C0
         AIF   ('&NAME' EQ '&IEDQSV(1)' AND &IEDQAR(10) EQ 2).OPT
         IEDQGCH 2
.C0      AIF   (&IEDQZA(55)).C1
         AIF   (&IEDQZA(54) EQ &IEDQZA(55) AND &IEDQZA(53) EQ &IEDQZA(5*
               4)).NOTAB
         MNOTE 12,'*** IHB315 SEQUENCE ERROR- MUST PRECEDE LAST ENTRY  *
                SPECIFIED BY TTABLE MACRO'
         AGO   .SETNO
.NOTAB   MNOTE 12,'*** IHB070 SEQUENCE ERROR- MUST FOLLOW TTABLE MACRO'
.SETNO   ANOP
&NO      SETB  1
.C1      AIF   ('&NAME' NE '').C1A
         MNOTE 12,'*** IHB076 MACRO NAME FIELD BLANK- NAME REQUIRED'
&NO      SETB  1
.C1A     AIF   ('&PCB' NE '').C2
         MNOTE 12,'*** IHB004 REQUIRED OPERAND(S) NOT SPECIFIED'
         SPACE 2
         MEXIT
.C2      AIF   (&NO).C3
         AIF   (K'&NAME LE &IEDQAR(1)-3).C3
&A       SETA  &IEDQAR(1)-3
         MNOTE 4,'*** IHB302 NAME FIELD LONG- TRUNCATED TO &A CHARS'
         SPACE 2
&A       SETA  0
.C3      AIF   ('&CKPTSYN' EQ 'NO').C3A
&B(6)    SETB  1
         AIF   ('&CKPTSYN' EQ 'YES').C3B
         MNOTE 12,'*** IHB002 INVALID CKPTSYN OPERAND SPECIFIED- &CKPTS*
               YN'
&NO      SETB  1
         AGO   .C3B
.C3A     AIF   ('&SYNC' EQ 'NO').C3B
&B(6)    SETB  1
         AIF   ('&SYNC' EQ 'YES').C3B
         MNOTE 12,'*** IHB002 INVALID SYNC OPERAND SPECIFIED- &SYNC'
&NO      SETB  1
.C3B     ANOP
&IEDQSV(4)  SETC  '&SYSECT'
         AIF   ('&QUEUES' EQ '').PUT
&B(5)    SETB  1
.C4      AIF   (&A GT 4).ERR3
&A       SETA  &A+1
         AIF   ('&QUEUES' NE '&QS(&A)').C4
&A       SETA  &QS(&A+5)
         AIF   (&A LE 34).C5
         AIF   (NOT &IEDQZA(42)).ERR2
.C5      AIF   (K'&RECDEL EQ 2).C6
         MNOTE 12,'*** IHB002 INVALID RECDEL OPERAND SPECIFIED- &RECDEL*
               '
&NO      SETB  1
.C6      AIF   (&L+1 GT N'&LEVEL-1).C7
&L       SETA  &L+1
         AIF   ('&LEVEL(&L+1)' GT '&LEVEL(&L)').C6
         MNOTE 12,'*** IHB002 INVALID LEVEL OPERAND SPECIFIED- &LEVEL(&*
               L)'
&NO      SETB  1
         AGO   .C6
.C7      AIF   (&NO).EXT
&IEDQZA(39) SETB 1                                               A44888
&IEDQZA(17) SETB 1                                               S22029
         IEDQTQ &PCB,&A,0,0,&LEVEL
&IEDQZA(39) SETB 0                                               A44888
&IEDQAR(5) SETA 0                                               SA51075
&IEDQZA(17) SETB 0                                               S22029
&NAME    IEDQTT
         AIF   ('&OPDATA' EQ '').C7A                             S22025
&B(7)    SETB  1
.C7A     AIF   ('&DATE' EQ 'NO').GEN                             S22025
         AIF   ('&DATE' NE 'YES').DATERR                       @OY15040
&B(4)    SETB  1                                               @OY15040
         AGO   .GEN                                            @OY15040
.DATERR  ANOP
         MNOTE 4,'*** IHB300 DATE OPERAND INVALID AS SPECIFIED, NO ASSU*
               MED'
.GEN     DC    BL1'001&B(4)&B(5)&B(6)&B(7)&B(8)',AL3(&IEDQSV(2)),2H'01'
         AIF   ('&ALTDEST' EQ '').NAL
&A       SETA  82-&IEDQAR(1)
         DC    AL2((&ALTDEST-IEDQTNT-&A)/&IEDQAR(1))
.ST      ANOP                                                    S22027
         AIF   ('&SECURE' EQ 'NO').L1                            S22024
         AIF   ('&SECURE' NE 'YES').SECERR                       S22024
&SEC     SETB  1                                                 S22024
         AGO   .L1                                               S22024
.SECERR  MNOTE 4,'*** IHB086 SECURE INVALID KEYWORD, NO ASSUMED' S22024
.L1      ANOP                                                    S22024
         AIF   ('&QBACK' EQ 'NO').ST1A                           S22027
         AIF   ('&QBACK' NE 'YES').QBERR                         S22027
         DC    BL2'000000000000000&SEC' .                        S22024
         DC    XL3'0',XL1'01',XL1'&RECDEL' .                     S22024
         AGO   .ST1                                              S22027
.QBERR   MNOTE 12,'*** IHB300 QBACK OPERAND INVALID AS SPECIFIED'
.ST1A    ANOP
         DC    BL2'000000000000000&SEC' .                        S22024
         DC    XL4'0',XL1'&RECDEL' .                             S22024
.ST1     ANOP                                                    S22025
         AIF   (&IEDQZA(53)).ST2
&IEDQZA(53) SETB  1
         ORG   IEDOCQPT
         DC    V(IEDQEU)
         ORG
.ST2     ANOP
&IEDQZA(54)  SETB  1
IEDQSTCS CSECT .                                                SA63593
IEDQQCBC CSECT
         ORG   &IEDQSV(2)+28
&V       SETC  'IED'.'&IEDQAR(4)'.'&X(&IEDQAR(7))'
         DC    A(&V)
         ORG
&IEDQSV(4) CSECT
         AIF   (N'&OPDATA EQ 0).CSE
.OPT     IEDQTO  &OPDATA
         AIF   (&IEDQAR(5) EQ 0).CSE
&IEDQAR(10) SETA 2
         AGO   .EXT
.NAL     DC    AL2(0) .                NO ALTERNATE DESTINATION
         AGO   .ST
.PUT     ANOP
&IEDQZA(38)  SETB  1
&A       SETA  2
         AIF   ('&SECTERM' EQ 'NO').C5
&B(8)    SETB  1
         AIF   ('&SECTERM' EQ 'YES').C5
         MNOTE 12,'*** IHB002 INVALID SECTERM OPERAND SPECIFIED- &SECTE*
               RM'
&NO      SETB  1
         AGO   .C5
.ERR2    MNOTE 12,'*** IHB318 QUEUES OPERAND &QUEUES INVALID WITH MSUNI*
               TS=0'
&NO      SETB  1
         AGO   .C5
.ERR3    MNOTE 12,'*** IHB002 INVALID QUEUES OPERAND SPECIFIED- &QUEUES*
               '
&NO      SETB  1
         AGO   .C5
.CSE     DC    XL3'0'
         AIF   ('&NAME' NE '&IEDQSV(5)').EXT
         IEDNOL ,                                                S99528
&IEDQZA(55) SETB   0
         AIF   (&IEDQAR(33) EQ 0 AND &IEDQAR(34) EQ 0).CSND
         ORG   IEDNADDR
         DC    A(&IEDQAR(34)*4+1),A(&IEDQAR(33)*4+3) .           S21101
         ORG
.CSND    AIF   (&IEDQAR(3) EQ 0).EXT
IEDQOPT  CSECT
IEDQOPTN DC    AL2(&IEDQAR(15))
&IEDQSV(4) CSECT
.EXT     SPACE 2
         MEND
