         MACRO
&NAME    TSINPUT
         GBLB  &IEDQZA(64),&IEDQZZ(16)                           S22028
         LCLB  &IEDLERR
         LCLC  &IEDLN
         LCLC  &XX                                               S22029
.*     VERSION DATED MARCH 15, 1972                              S22028
.*A749300-749800                                                 A22028
.*C090000,170000                                                 A22028
.*A160000,744400-749200                                          A22029
.*A720000                                                        A44022
.*C744000                                                        P00461
.*A510000                                                       SA61077
.*C744000                                                      @OY14094
.CHECKA  AIF   (&IEDQZA(51)).CHECKB
         MNOTE 12,'***  IHB312  MUST FOLLOW INTRO MACRO WITH ENVIRON=TS-
               O OR ENVIRON=MIXED'
&IEDLERR SETB  1
.CHECKB  AIF   (NOT &IEDQZA(21)).GEN
         MNOTE 12,'***  IHB311  TSINPUT MACRO PREVIOUSLY SPECIFIED'
&IEDLERR SETB  1
.GEN     AIF   (&IEDLERR).END
&IEDQZA(21) SETB 1
&IEDLN   SETC  '&SYSECT'
IEDQQCBC CSECT
         DS    0F                                               SA61077
IEDAYTSQ DC    AL1(2),AL3(0),X'E4',AL3(0)
         DC    V(IEDAYI,IEDAYT) .       TSINPUT, STAE ROUTINES
         DC    V(IEDAYE,IEDAYH) .       EDIT, HANGUP ROUTINES
         DC    V(IEDAYS,IEDAYZ),3A(0) . SIMATTN, SCHEDULER ROUTINES
         DC    V(IEDAYM,IEDAYF) .       MSGGEN, HALT I/O ROUTINES
IEDAYDQB DC    AL1(2),AL3(IEDAYDQB)  .  TIME DLY QCB REMOVAL RTN'S QCB
         DC    X'EC',AL3(0),AL1(0),VL3(IEDAYY)
         DC    X'64',AL3(IEDTSIAB)          AQCTL PARM LIST      A44022
IEDTSIAB DC    X'80',AL3(IEDTSIAB)     PARM LIST ELEMENT         A44022
         DC    X'FF',AL3(0)        PRIORITY LINK FIELD           A44022
         DC    V(IEDAYAB)               STCB ADDRESS           @OY14094
         AIF   (&IEDQZA(52)).TSO0010                             S22029
         DC    3A(0)                                             S22029
         AGO   .TSO0030                                          S22029
.TSO0010 ANOP                                                    S22029
         AIF   (&IEDQZA(41) EQ &IEDQZA(42)).TSO0020              S22029
&XX      SETC  '2'                                               S22029
         AIF   (&IEDQZA(41)).TSO0020                             S22029
&XX      SETC  '1'                                               S22029
.TSO0020 ANOP                                                    S22029
         DC    V(IEDQHM&XX,IEDQFA&XX,IEDQFQ)                     S22029
.TSO0030 ANOP                                                    S22029
         DC    V(IEDAYA) .             TSO ATTENTION ROUTINE     S22029
         DC    V(IEDAYD) .             TSO DESTINATION SCHEDULER S22029
         AIF   (NOT &IEDQZZ(1)).N3270                            S22028
         DC    V(IEDAYB)                3270 EDITING MODULE      S22028
         AGO   .CONTINU                                          S22028
.N3270   ANOP                                                    S22028
         DC    A(0)                                              S22028
.CONTINU ANOP                                                    S22028
&IEDLN   CSECT
.END     SPACE 2
         MEND
$ END
