         MACRO
&NAME    UNLOCK &CHARS,&BLANK=YES,&CONNECT=OR,&DISABLE=NO       SA51090
         GBLA  &IEDQZD,&IEDQZE(64)
         GBLB  &IEDQZA(64)
         GBLC  &IEDQZB,&IEDQZC
         LCLB  &NOGO,&ALG,&BIT,&MASKMN,&DIS                     SA51090
.*C040000,120000-140000,260000-320000                           SA51090
.*D480000                                                       SA51090
.*             VERSION DATED FEBRUARY 29, 1972                  SA51090
         SPACE
         AIF   (NOT &IEDQZA(9)).TSOCHK
         MNOTE 12,'***  IHB312  MUST FOLLOW STARTMH MACRO WITH TSOMH=NO*
               '
&NOGO    SETB  1
.TSOCHK  AIF   (&IEDQZA(3) OR &IEDQZA(4) OR &IEDQZA(5)).OK      SA51090
         MNOTE 12,'*** IHB070 SEQUENCE ERROR - MUST FOLLOW INHDR,INMSG,X
               OUTHDR OR OUTMSG MACRO'                          SA51090
         MEXIT                                                  SA51090
.OK      AIF   (NOT &IEDQZA(5)).CHK                             SA51090
.MASK    AIF   ('&CHARS' EQ '').AND                             SA51090
         IEDQMASK &CHARS,5                                      SA51090
         AIF   (NOT &IEDQZA(24)).CNCL                           SA51090
.ERR     AIF   (&MASKMN).AND                                    SA51090
         MNOTE 12,'***  IHB300  MASK OPERAND INVALID AS SPECIFIED ***'
.* PREVIOUS STATEMENT MICROFICHE                                SA51090
&MASKMN  SETB  1                                                SA51090
&NOGO    SETB  1                                                SA51090
.CNCL    AIF   ('&CHARS'(1,1) NE 'X').AND                       SA51090
         AIF   ('&CHARS'(2,1) EQ 'L' AND '&CHARS'(3,1) NE '5').ERR
.* PREVIOUS STATEMENT MICROFICHE                                SA51090
         AIF   ('&CHARS'(2,1) NE 'L' AND K'&CHARS NE 13).ERR    SA51090
.AND     AIF   ('&CONNECT' EQ 'AND' OR '&CONNECT' EQ 'OR').OP   SA51090
         MNOTE 12,'***  IHB300  CONNECT OPERAND INVALID AS SPECIFIED '
.* PREVIOUS STATEMENT MICROFICHE                                SA51090
&NOGO    SETB  1                                                SA51090
.OP      ANOP                                                   SA51090
         AIF   ('&DISABLE' EQ 'YES' OR '&DISABLE' EQ 'NO').GOODOP
.* PREVIOUS STATEMENT MICROFICHE                                SA51090
         MNOTE 12,'***  IHB300  DISABLE OPERAND INVALID AS SPECIFIED'
.* PREVIOUS STATEMENT MICROFICHE                                SA51090
&NOGO    SETB  1                                                SA51090
.GOODOP  AIF   (&NOGO).MEND                                     SA51090
&DIS     SETB  ('&DISABLE' EQ 'YES')                            SA51090
&ALG     SETB  ('&CONNECT' EQ 'AND')                            SA51090
         IEDQVCON 45,IEDQBF                                     SA51090
&BIT     SETB  ('&CHARS' EQ '0' OR '&CHARS' EQ 'X''0000000000''' OR    X
               '&CHARS' EQ 'XL5''0000000000''' OR '&CHARS' EQ '')
.* PREVIOUS STATEMENT MICROFICHE                                SA51090
         AIF   (&BIT).DC1                                       SA51090
&NAME    DC    AL1((&IEDQZE(45)+&BIT),(&ALG+8),(&DIS))          SA51090
         AIF   ('&CHARS'(1,1) EQ 'X').HEX                       SA51090
         DC    FL5'&CHARS' .            ERROR MASK              SA51090
         AGO   .MEND                                            SA51090
.HEX     DC    &CHARS .                 ERROR MASK              SA51090
         AGO   .MEND                                            SA51090
.DC1     ANOP                                                   SA51090
&NAME    DC    AL1((&IEDQZE(45)+&BIT),(4+&ALG),(&DIS)),AL1(0)   SA51090
         AGO   .MEND                                            SA51090
.CHK     AIF   ('&CHARS' EQ '').NM
         IEDQCHAR 8,&CHARS
         AIF   (&IEDQZA(24)).CHARERR
         AIF   (&IEDQZD LE 8).NM
.CHARERR MNOTE 12,'***  IHB300  CHARACTER OPERAND INVALID AS SPECIFIED'
&NOGO    SETB  1
.NM      AIF   (&NOGO).MEND
&NAME    DS    0H
.NON     AIF   ('&CHARS' EQ '').DC
         IEDQSCAN &IEDQZD,&CHARS,&BLANK
         AIF   (&IEDQZA(24)).MEND
         LTR   15,15
         BNP   *+24
         L     1,IEDADBUF .             GET BUFFER ADDRESS
         STH   15,24(,1) .              STORE SCAN POINTER IN BFR PFX
.DC      IEDQVCON 45,IEDQBF
         BAL   1,*+6
         DC    AL1(&IEDQZE(45)),AL1(0)
         L     15,IEDUI
         BALR  14,15
.MEND    SPACE 2
         MEND
