         TITLE 'IFCSI145 MODEL  145 CHANNEL SUMMARY'
*
*
*  DSGEN MACRO     DSGEN MACRO     DSGEN MACRO     DSGEN MACRO        *
         SPACE 2
         MACRO
&NAME    DSGEN
.*                            THIS MACRO GENERATES ONE DSECT WORD
.*                                 FORMATTED FOR THE SUBJECT LOG RECORD
.*                                 EACH OPERAND HAS TWO SUB LISTS. THE
.*                                 FIRST IS THE NAME OF THE LOG ITEM
.*                                 WHILE THE SECOND IS THE # OF BITS TO
.*                                 ALLOCATE FOR THIS ITEM. ITEMS MUST
.*                                 BE DEFINED CONTIGUOUSLY WITHOUT GAPS
.*                                 UNUSED BIT GROUPS MUST BE GIVEN
.*                                 DUMMY NAMES. THE NAMES PROVIDED FOR
.*                                 THE LOG ITEMS MAY THEN BE USED IN
.*                                 THE CONVERSION MACRO INSTRUCTIONS.
         GBLC &ITEM(1000)
         GBLA &ITEMNBR,&BITS(1000),&SHIFT(1000)
         LCLB  &ONLY1,&CTIND
         LCLA  &START1,&START2,&END1,&END2
         LCLC  &SYMBOL,&EQUSYM
         LCLA  &OP,&COUNT,&BYTE,&EQUCNT
         ACTR  100000
.START   AIF   (N'&SYSLIST(&OP+1) LT 3).LOOP
         AIF   ('&SYSLIST(&OP+1,3)' EQ 'EQU').LOOP     TEST FOR EQU
  AIF   ('&SYSLIST(&OP+1,3)' EQ '' AND '&SYSLIST(&OP+1,4)' EQ '').ERR1
  AIF   ('&SYSLIST(&OP+1,3)' EQ '' OR '&SYSLIST(&OP+1,4)' EQ '').ERR1
         AIF   ('&SYSLIST(&OP+1,3)' GT '&SYSLIST(&OP+1,4)').ERR3
&START1  SETA  &SYSLIST(&OP+1,3)        GET START COUNT OF 1
&START2  SETA  &SYSLIST(&OP+1,4)        GET FIRST END COUNT
         AGO   .SET2A                   BRANCH AROUND
.ERR1    MNOTE '**FIRST SYMBOL CONCATENATION INCOMPLETE**'
         MEXIT
.SET2A   AIF   ('&SYSLIST(&OP+1,5)' EQ ''AND '&SYSLIST(&OP+1,6)' EQ '' X
               ).SET2                   TEST FOR NO SECOND
  AIF   ('&SYSLIST(&OP+1,5)' EQ '' OR '&SYSLIST(&OP+1,6)' EQ '').ERR2
         AIF   ('&SYSLIST(&OP+1,5)' GT '&SYSLIST(&OP+1,6)').ERR3
&END1    SETA  &SYSLIST(&OP+1,5)        GET START COUNT OF 2
&END2    SETA  &SYSLIST(&OP+1,6)        GET END COUNT OF 2
         AGO   .LOOP
.SET2    ANOP
&ONLY1   SETB  1                        INDICATE ONLY ONE CONCATENATION
         AGO   .LOOP
.ERR2    MNOTE '**SECOND SYMBOL CONCATENATION INCOMPLETE**'
         MEXIT
.ERR3    MNOTE '**START GREATER THAN END CONCATENATION**'
         MEXIT
.LOOP    ANOP
&OP      SETA  &OP+1
         AIF   (&OP GT N'&SYSLIST).DONE      TEST IF ALL DONE
&ITEMNBR SETA  &ITEMNBR+1
         AIF   ('&SYSLIST(&OP,2)' NE '').OK1
         MNOTE '**NULL BIT COUNT FIELD**'
         MEXIT
.OK1     ANOP
&SYMBOL  SETC  '&SYSLIST(&OP,1)'
         AIF   ('&SYMBOL' NE '').OK
*              *****     LOG ITEM SYMBOL NOT PROVIDED     *****
         AIF   ('&SYSLIST(&OP,3)' NE 'EQU').CNT
         AGO   .START                   GET NEXT
.OK      AIF   (N'&SYSLIST(&OP) LT 3).NO3    TEST FOR OLD FORMAT
         AIF   ('&SYSLIST(&OP,3)' EQ 'EQU').EQU   TEST FOR EQU
         AIF   (&ONLY1).OK2             TEST FOR ONLY ONE CONCAT
&SYMBOL  SETC  '&SYMBOL.&START1.&END1'       GET 1 AND 2 CONCAT
         AGO   .NO3                     BRANCH AROUND
.OK2     ANOP
&SYMBOL  SETC  '&SYMBOL.&START1'        GET 1 CONCATENATED
.NO3     ANOP
&SYMBOL  EQU   *+&BYTE
&ITEM(&ITEMNBR) SETC '&SYMBOL'          GET LABEL IN GLOBAL
&BITS(&ITEMNBR) SETA &SYSLIST(&OP,2)
&SHIFT(&ITEMNBR) SETA &COUNT-&BYTE*8
.CNT     ANOP
&CTIND   SETB  1                        SET COUNT INDICATOR
&COUNT   SETA  &COUNT+&SYSLIST(&OP,2)
&BYTE    SETA  &COUNT/8
         AIF   (N'&SYSLIST(&OP) LT 3).START  TEST FOR OLD FORMAT
         AIF   (&ONLY1).TSTST           TEST FOR ONLY ONE CONCAT
         AIF   (&END1 EQ &END2).TSTST   TEST FOR SECOND END
&END1    SETA  &END1+1                  INCREMENT COUNT
&OP      SETA  &OP-1                    DECREMENT INCREMENT
         AGO   .LOOP                    GENERATE NEXT
.TSTST   ANOP
         AIF   (&START1 EQ &START2).LPDONE   TEST FOR END
         AIF   (&ONLY1).NSET1           TEST FOR ONLY ONE CONCAT
&END1    SETA  &SYSLIST(&OP,5)          RE-INIT SECOND START COUNT
.NSET1   ANOP
&OP      SETA  &OP-1                    DECREMENT INDEX
&START1  SETA  &START1+1                INCREMENT FIRST COUNT
         AGO   .LOOP                    GO DO NEXT
.LPDONE  ANOP
&ONLY1   SETB  0                        CLEAR INDICATOR
         AGO   .START                   GO TEST FOR MORE SUB-LISTS
.DONE    AIF   (&COUNT-&COUNT/8*8 NE 0).ERR  TEST FOR MULTIPLE OF EIGHT
         AIF   (&CTIND EQ 0).END        NO DS IF NO COUNT
&COUNT   SETA  &COUNT/8                 GET NUMBER OF BYTES
&NAME    DS    &COUNT.C
.END     MEXIT
.ERR     MNOTE '**BIT COUNT FLDS DO NOT TOTAL MULTIPLE OF 8**'
         MEXIT
.EQU     AIF   ('&SYSLIST(&OP,4)' NE '').EQU1     TEST FOR NULL LABEL
.ERR4    MNOTE '**EQU OPERAND OMITTED OR NOT FOUND**'
         MEXIT
.EQU1    AIF   (&SYSLIST(&OP,2) LT 16).EQU2  COUNT OVER FIFTEEN
*****               THE FOLLOWING STATEMENT                *****
*****     NUMBER OF BITS EXCEED 15 - DO NOT USE AS BIN     *****
.EQU2    ANOP
&EQUCNT  SETA  0                        CLEAR COUNTER
&EQUSYM  SETC  '&SYSLIST(&OP,4)'        GET EQU OPERAND
.EQULOP  ANOP
&EQUCNT  SETA  &EQUCNT+1                INCREMENT INDEX
         AIF   ('&ITEM(&EQUCNT)' EQ '&EQUSYM').EQUOUT  LABEL FOUND?
         AIF   (&EQUCNT EQ &ITEMNBR).ERR4    ALL TESTED?
         AGO   .EQULOP                  NO-GET NEXT
.EQUOUT  ANOP
&ITEM(&ITEMNBR) SETC '&SYMBOL'          GET LABEL NAME
&BITS(&ITEMNBR) SETA &SYSLIST(&OP,2)    GET NUMBER OF BITS
&SHIFT(&ITEMNBR) SETA &SHIFT(&EQUCNT)   GET SHIFT COUNT
&SYMBOL  EQU   &EQUSYM                  THIS SYMBOL EQUATED
         AGO   .START                   RETURN FOR NEXT
         MEND
         MACRO
&NAME    LINE  &DATA,&LABEL,&SKIP=
.*                            THIS MACRO ESTABLISHES THE MARGINS OR
.*                                 COLUMN SETTINGS FOR EACH LINE. IT
.*                                 GENERATES NECESSARY CARRIAGE CONTROL
.*                                 ENTRIES. LASTLY IT DETERMINES THE
.*                                 NUMBER OF ENTRIES ASSOCIATED WITH
.*                                 THE PREVIOUS LINE AND STORES THAT #
.*                                 INTO THE APPROPRIATE BYTE.
.*                            &DATA(1) - CHARACTER POSITION TO BEGIN
.*                                 DATA.
.*                            &DATA(2) - # OF SPACES BETWEEN SUCCESSIVE
.*                                 DATA COLUMN STARTING CHARACTERS.
.*                            &LABEL(1) - CHAR. POS. TO BEGIN LABELS.
.*                            &LABEL(2) - # SPACES BETWEEN LINE'S LABEL
.*                                 STARTING CHARACTERS.
.*                            &SKIP= - # OF LINES TO ADVANCE CARRIAGE
.*                                 TO BEGIN NEXT PRINTED LINE.
.*                            NEW ENTRIES ARE GENERATED ONLY WHEN
.*                                 NECESSARY. OMISSION OF ITEMS MEANS
.*                                 THEY HAVE NOT CHANGED SINCE PREVIOUS
.*                                 SETTINGS. A LINE MACRO IS REQUIRED
.*                                 FOR EACH PRINTED LINE. IF NO SETTING
.*                                 CHANGES ARE REQUIRED ALL OPERANDS
.*                                 ARE OMITTED IN WHICH CASE ONLY THE
.*                                 # OF ENTRIES FOR THE PREVIOUS LINE
.*                                 IS COMPUTED. THIS MACRO MUST BE THE
.*                                 FIRST MACRO INSTRUCTION ISSUED FOR
.*                                 THE SUBJECT LINE
         GBLA  &DB,&DT,&LB,&LT,&NRENTS
         GBLA  &LASTCC,&INITIAL
         GBLC  &NRENTSX
         GBLC  &CARRCON
         GBLB  &TEST
         LCLA  &S
&NAME    DS    0C
         AIF   (&INITIAL EQ 0).FIRSTLN
         LINEND
         AGO   .NTFIRST
.FIRSTLN ANOP
&NRENTSX SETC  'N&SYSNDX'
&INITIAL SETA  1
N&SYSNDX EQU   *
.NTFIRST ANOP
         DC    AL1(0)
         AIF   ('&DATA(1)' EQ '').CKDTABS
         AIF   (&DATA(1) EQ &DB).CKDTABS
&DB      SETA  &DATA(1)
         AGO   .AA
.CKDTABS AIF   ('&DATA(2)' EQ '').NCDATA
         AIF   (&DATA(2) EQ &DT).NCDATA
         AGO   .CC
.AA      AIF   ('&DATA(2)' EQ '').BB
         AIF   (&DATA(2) EQ &DT).BB
.CC      ANOP
&DT      SETA  &DATA(2)
.BB      DC    XL2'FFFE'
         DC    FL1'&DB'
         DC    FL1'&DT'
&NRENTS  SETA  &NRENTS+1
.NCDATA  ANOP
         AIF   ('&LABEL(1)' EQ '').CKLTABS
         AIF   (&LABEL(1) EQ &LB).CKLTABS
&LB      SETA  &LABEL(1)
         AGO   .AAA
.CKLTABS AIF   ('&LABEL(2)' EQ '').NCLABEL
         AIF   (&LABEL(2) EQ &LT).NCLABEL
         AGO   .CCC
.AAA     AIF   ('&LABEL(2)' EQ '').BBB
         AIF   (&LABEL(2) EQ &LT).BBB
.CCC     ANOP
&LT      SETA  &LABEL(2)
.BBB     DC    XL2'FFFF'
         DC    FL1'&LB'
         DC    FL1'&LT'
&NRENTS  SETA  &NRENTS+1
.NCLABEL ANOP
         AIF   ('&SKIP' NE '').CONT
         AIF   (&TEST EQ 0).NOCHANG
&S       SETA  &LASTCC
         AGO   .DEFAULT
.CONT    ANOP
         AIF   (&TEST EQ 0).AB
&S       SETA  &SKIP
.DEFAULT ANOP
         ORG   &CARRCON+3
         DC    AL.3(0),AL.2(&S),AL.3(1)
         ORG
&LASTCC  SETA  &S
&TEST    SETB  0
         AGO   .DD
.AB      AIF   (&SKIP EQ &LASTCC).NOCHANG
A&SYSNDX DC    XL2'FFFB'
         DC    AL.3(0),AL.2(&SKIP),AL.3(1)
         DC    FL1'9'
&LASTCC  SETA  &SKIP
&TEST    SETB  1
&CARRCON SETC  'A&SYSNDX'
&NRENTS  SETA  &NRENTS+1
.DD      ANOP
.NOCHANG ANOP
         MEND
         MACRO
         BIN   &LOGITEM,&SKIP$OR
.*                                 &LOGITEM - NAME OF ITEM IN LOG
.*                                      RECORD DSECT
.*                                 &SKIP$OR - NBR OF SPACES TO SKIP ON
.*                                 MULTIPLE PRINT OR NBR OF SPACES
.*                                      TO BACK UP FROM COLUMN FOR
.*                                      START OF PRINTING. THE LETTER
.*                                      B PRECEEDS THE NUMBER (B5) IF
.*                                      THE LATTER IS DESIRED. OMISSION
.*                                      OF THIS OPERAND FORCES OPTION 2
.*                                      WITH BACKUP SPACING EQUAL TO
.*                                 THE NUMBER OF BITS IN THE ITEM
.*                                 DEFINITION (VIA MACRO 'DSGEN').
.*                            A LIMIT OF 15 BITS IS IMPOSED FOR THE
.*                                 TOTAL NUMBER OF BITS TO PRINT.
         GBLC &ITEM(1000)
         GBLA &ITEMNBR,&BITS(1000),&SHIFT(1000),&NRENTS
         GBLC  &DSECT
         LCLB  &B
         LCLA  &IBITS,&NDX,&ISHIFT,&K
         LCLA  &TEMP
         LCLC  &S
.LOOP    ANOP
&NDX     SETA  &NDX+1
         AIF   ('&ITEM(&NDX)' EQ '&LOGITEM').FOUND
         AIF   (&NDX LT &ITEMNBR).LOOP
         MNOTE *,'YOU BLEW IT'
         ROUTINE DUM,SKIPPER
         MEXIT
.FOUND   ANOP
&ISHIFT  SETA  &SHIFT(&NDX)
&IBITS   SETA  &BITS(&NDX)
&S       SETC  '&IBITS'
&B       SETB  1
         AIF   ('&SKIP$OR' EQ '').BACKUP
&K       SETA  K'&SKIP$OR
&B       SETB  ('&SKIP$OR'(1,1) EQ 'B')
&S       SETC  '&SKIP$OR'(&B+1,&K-&B)
.BACKUP  ANOP
&NRENTS  SETA  &NRENTS+1
&TEMP    SETA  &ISHIFT+1
A&SYSNDX DC    AL.12(&LOGITEM-&DSECT),XL.4'&TEMP'
         AIF (&IBITS EQ 1 AND &B EQ 0).OUT
         ORG   A&SYSNDX
         DC    AL.12(&LOGITEM-&DSECT),XL.4'C'
         DC    BL.1'&B',AL.7(&S),AL.4(&IBITS),FL.4'&ISHIFT'
.OUT     ANOP
         MEND
         MACRO
         HEX   &LOGITEM,&SKIP$OR,&BYTES
.*                            THIS MACRO FACILITATES GENERATION OF THE
.*                                 TABLE ENTRIES SPECIFYING HEX TYPE
.*                                 CONVERSIONS.
.*                            &LOGITEM - NAME OF DATA ITEM TO BE
.*                                 CONVERTED
.*                            &SKIP$OR - NUMBER OF SPACES TO SKIP ON
.*                                 MULTIPLE PRINT OR NBR OF SPACES TO
.*                                 BACK UP FROM COLUMN FOR START OF
.*                                 PRINTING. THE LETTER B PRECEEDS THE
.*                                 NUMBER (B8) IF THE LATTER OPTION IS
.*                                 DESIRED. OMISSION OF THIS OPERAND
.*                                 FORCES OPTION 2 WITH BACKUP SPACING
.*                                 EQUAL TO THE NUMBER OF BYTES SPECI-
.*                                 FIED BY THE NEXT OPERAND (TWICE THIS
.*                                 NUMBER IF SUFFIX IS EXPLICITLY OR
.*                                 IMPLICITLY B).
.*                            &BYTES - NUMBER OF TOTAL INPUT BYTES TO
.*                                 PROCESS. THIS NUMBER IS SUFFIXED
.*                                 WITH AN L,R, OR B TO STIPULATE
.*                                 PRINTING OF THE LEFT HALF, RIGHT
.*                                 HALF, OR BOTH HALVES OF THE BYTE
.*                                 RESPECTIVELY. OMISSION OF THIS
.*                                 OPERAND DEFAULTS TO B WITH THE NUM-
.*                                 BER OF BYTES EQUAL TO THE ITEM LNGTH
.*                            A NEW ENTRY IS GENERATED ONLY WHEN NECES-
.*                                 SARY. THIS MACRO MUST BE THE FIRST
.*                                 MACRO INSTRUCTION ISSUED FOR THE
.*                                 SUBJECT LINE(S).
         GBLC &ITEM(1000),&DSECT
         GBLA &ITEMNBR,&BITS(1000),&SHIFT(1000),&NRENTS
         LCLB  &B
         LCLA  &IBITS,&NDX,&ISHIFT,&K,&T,&CODE,&BYTESP
         LCLC  &S,&LETTER
.LOOP    ANOP
&NDX     SETA  &NDX+1
         AIF   ('&ITEM(&NDX)' EQ '&LOGITEM').FOUND
         AIF   (&NDX LT &ITEMNBR).LOOP
         MNOTE *,'LOG ITEM NOT DEFINED'
         MEXIT
.FOUND   ANOP
&ISHIFT  SETA  &SHIFT(&NDX)
&IBITS   SETA  &BITS(&NDX)
&CODE    SETA  1
&K       SETA  K'&BYTES
         AIF   (&IBITS-(&IBITS/4)*4 EQ 0).OK
         MNOTE *,'BIT LENGTH SPECIFICATION INCONSISTENT WITH CONTROL'
         MEXIT
.OK      AIF   ('&BYTES' EQ '').USEDEFN
&LETTER  SETC  '&BYTES'(&K,1)
&S       SETC  '&BYTES'(1,&K-1)
&BYTESP  SETA  &S
         AIF   ('&LETTER' EQ 'B').BOTH
         AIF   (&ISHIFT EQ 0 OR &ISHIFT EQ 4).OK2
.ERR     MNOTE *,'DATA NOT ALLIGNED ON HEX OR BYTE BOUNDARY'
         MEXIT
.USEDEFN ANOP
&BYTESP  SETA  &IBITS/8
.BOTH    AIF   (&ISHIFT NE 0).ERR
&CODE    SETA  3
&T       SETA  &BYTESP*2
&S       SETC  '&T'
.OK2     AIF   (&ISHIFT EQ 0).L
&CODE    SETA  2
.L       ANOP
&B       SETB  1
         AIF   ('&SKIP$OR' EQ '').BACKUP
&K       SETA  K'&SKIP$OR
&B       SETB  ('&SKIP$OR'(1,1) EQ 'B')
&S       SETC  '&SKIP$OR'(&B+1,&K-&B)
.BACKUP  ANOP
&NRENTS  SETA  &NRENTS+1
         DC    AL.12(&LOGITEM-&DSECT),XL.4'A'
         DC    BL.1'&B',FL.7'&S',FL.4'&BYTESP',FL.4'&CODE'
.OUT     ANOP
         MEND
         MACRO
&NAME    ROUTINE &LOGITEM,&RNAME
         GBLA  &NRENTS
         GBLC  &DSECT,&CSECT
&NAME    DC    AL.12(&LOGITEM-&DSECT),XL.4'D'
         DC    AL2(&RNAME-&CSECT)
&NRENTS  SETA  &NRENTS+1
         MEND
         MACRO
         LABEL &LABEL1,&LABEL2,&LABEL3,&LABEL4
.*                            THIS MACRO ALLOWS UP TO FOUR LABELS TO
.*                                 BE SPECIFIED FOR A GIVEN LINE. THE
.*                                 LABELS SHOULD BE ENCLOSED IN QUOTA-
.*                                 TION MARKS. THE COLUMN AND LINE END
.*                                 CONTROLS WILL BE INSERTED BY THE
.*                                 MACRO. OMITTED OPERANDS MEAN NO
.*                                 LABEL REQUIRED FOR RESPECTIVE
.*                                 COLUMN. THIS MACRO WILL ALSO ALERT
.*                                 THE PROGRAMMER TO EXACTLY WHERE THE
.*                                 TABLE MUST BE BROKEN IF NECESSARY
.*                                 TO AVOID EXCEEDING THE MAXIMUM LIMIT
         GBLC &LABELS(1000)
         GBLA  &LABELNR
         GBLA  &NRENTS
         LCLC  &MARGIN,&TACK
         LCLC  &TEXT
         LCLA  &OP,&K,&START,&NRCHAR,&REMAIN
&MARGIN  SETC  '*'
.LOOPOUT ANOP
&OP      SETA  &OP+1
&K       SETA  K'&SYSLIST(&OP)
         AIF (&K GE 2).NORM
&K       SETA  2
.NORM    ANOP
&START   SETA  2
         AIF (&OP LT N'&SYSLIST).NOTLAST
&MARGIN  SETC  '$'
.NOTLAST ANOP
&NRCHAR  SETA  8
&TACK    SETC  ''
.LOOPIN  ANOP
&REMAIN  SETA  &K-&START
         AIF (&REMAIN GE 8).MORE
&TACK    SETC  '&MARGIN'
&NRCHAR  SETA  &REMAIN
.MORE    ANOP
&TEXT    SETC  ''
         AIF (&REMAIN EQ 0).ENDTEXT
&TEXT    SETC  '&SYSLIST(&OP)'(&START,&NRCHAR)
.ENDTEXT ANOP
&LABELNR SETA  &LABELNR+1
&LABELS(&LABELNR) SETC '&TEXT'.'&TACK'
&START   SETA  &START+8
         AIF ('&TACK' EQ '').LOOPIN
         AIF ('&TACK' EQ '*').LOOPOUT
         MEND
         MACRO
         LSTART
.*                            THIS MACRO IS ISSUED WHEN THE LABEL AREA
.*                                 OF THE TABLE IS TO BEGIN.
         GBLC &LABELS(1000)
         GBLA  &LABELNR
         LCLA  &NDX
         LINEND
.LOOP    ANOP
&NDX     SETA  &NDX+1
         DC    C'&LABELS(&NDX)'
         AIF   (&NDX LT &LABELNR).LOOP
         MEND
         MACRO
         LINEND
.*                            THIS MACRO IS USED ONLY BY THE LINE
.*                                 MACRO TO SET THE NUMBER OF ENTRIES
.*                                 ASSOCIATED WITH EACH LINE.
         GBLA  &NRENTS
         GBLC &NRENTSX
         ORG   &NRENTSX
         DC    FL1'&NRENTS'
         ORG
&NRENTS  SETA  0
B&SYSNDX EQU   *
&NRENTSX SETC  'B&SYSNDX'
         MEND
         MACRO
         SUM   &LOGITEM,&MASK
.*                            THIS MACRO GENERATES A NORMAL EDIT ENTRY
.*                                 FOR PROCESSING BY THE SUMMARY MODULE
.*                            &LOGITEM - NAME OF DATA ITEM TO BE SUMMED
.*                            &MASK - BYTE MASK FOR BITS TO BE TESTED.
.*                                 THIS OPERAND SHOULD BE OMITTED FOR
.*                                 SINGLE BIT ITEMS IN WHICH CASE THE
.*                                 MASK WILL BE SET ACCORDING TO THE
.*                                 OFF BYTE BIT DISPLACEMENT OF THE
.*                                ITEM AS DEFINED BY THE MACRO 'DSGEN'
         GBLA  &COUNTR,&ITEMNBR,&BITS(1000),&SHIFT(1000)
         GBLC  &ITEM(1000),&DSECT
         LCLA  &IBITS,&NDX,&ISHIFT,&M,&BITNBR
.LOOP    ANOP
&NDX     SETA  &NDX+1
         AIF   ('&ITEM(&NDX)' EQ '&LOGITEM').FOUND
         AIF   (&NDX LT &ITEMNBR).LOOP
         MNOTE *,'LOGITEM NOT FOUND'
         MEXIT
.FOUND   ANOP
         DC    AL1(0)
&ISHIFT  SETA  &SHIFT(&NDX)
&IBITS   SETA  &BITS(&NDX)
         AIF   ('&MASK' EQ '').FORM
         DC    B'&MASK'
         AGO   .ITEM
.FORM    ANOP
&BITNBR  SETA  &ISHIFT-7
&BITNBR  SETA  0-&BITNBR
&M       SETA  1
.LOOP2   ANOP
         AIF   (&BITNBR EQ 0).GOTIT
&M       SETA  &M*2
&BITNBR  SETA  &BITNBR-1
         AGO   .LOOP2
.GOTIT   ANOP
         DC    AL1(&M)
.ITEM    DC    AL2(&LOGITEM-&DSECT)
         DC    AL2(&COUNTR)
&COUNTR  SETA  &COUNTR+1
         MEND
         MACRO
         SPECIAL  &ROUTINE,&PARAM,&SPACE=
.*                            THIS MACRO GENERATES A SPECIAL ROUTINE
.*                                 ENTRY TO BE PROCESSED BY THE SUM. M.
.*                            &ROUTINE - SYMBOL ON SPECIAL ROUTINE EWT.
.*                            &PARAM - AN 8 BIT BINARY REPRESENTATION
.*                                 TO OCCUPY THE 'MASK' FIELD BUT TO BE
.*                                 INTERPRETED AS AN ARGUMENT OF THE
.*                                 SPECIAL ROUTINE.
.*                            &SPACE - THE NUMBER OF 2BYTE COUNTERS TO
.*                                 ALLOCATE FOR REQUIRED PROCESSING.
         GBLC  &CSECT
         GBLA  &COUNTR
         LCLA  &ADD
         DC    AL1(128)
         DC    BL.8'&PARAM'
         DC    AL2(&ROUTINE-&CSECT)
         DC    AL2(&COUNTR)
&ADD     SETA  1
         AIF   ('&SPACE' EQ '').NORM
&ADD     SETA  &SPACE
.NORM    ANOP
&COUNTR  SETA  &COUNTR+&ADD
         MEND
         GBLC  &DSECT,&CSECT
&CSECT   SETC  'IFCSI145'
&DSECT   SETC  'CI145'
IFCSI145 CSECT
CI145    DSECT
DUM      EQU   *
         DSGEN (XKEY,16),(XSWS,16),(XDUM1,32)
         DSGEN (XDATE,32),(XTIME,32)
         DSGEN (XDUM2,8),(XSER,24),(XMOD,16),(MCEL,16)
         DSGEN (XPGMN,64)
         DSGEN (XAIO1,64)
         DSGEN (XAIO5,64)
         DSGEN (XFCCW,64)
         DSGEN (XCSW,32),(XCSWS,12),(XCDC,1),(XCCC,1),(XIFC,1),(XD,17)
         DSGEN (XECSW,32)
         DSGEN (XDEVT1,16),(XDEVT2,16)
         DSGEN (XCHID,8),(XCUA,24)
         DSGEN (XMPIN,32)
         DSGEN (HARDWARE,32)
         DSGEN (LOGLNGTH,8),(,88)
         DSGEN (MCHRG00,1),(MCHRG01,1),(MCHRG02,1),(MCHRG03,1),        X
               (MCHRG04,1),(MCHRG05,1),(MCHRG06,1),(MCHRG07,1),        X
               (MCHRG08,1),(MCHRG09,1),(MCHRG10,1),(MCHRG11,1),        X
               (MCHRG12,1),(MCHRG13,1),(MCHRG14,1),(MCHRG15,1),        X
               (MCHRG16,1),(MCHRG17,1),(MCHRG18,1),(MCHRG19,1),        X
               (MCHRG20,1),(MCHRG21,1),(MCHRG22,1),(MCHRG23,1),        X
               (MCHRG24,1),(MCHRG25,1),(MCHRG26,1),(MCHRG27,1),        X
               (MCHRG28,1),(MCHRG29,1),(MCHRG30,1),(MCHRG31,1)
         DSGEN (MCHRGB00,1),(MCHRGB01,1),(MCHRGB02,1),(MCHRGB03,1),    X
               (MCHRGB04,1),(MCHRGB05,1),(MCHRGB06,1),(MCHRGB07,1),    X
               (MCHRGB08,1),(MCHRGB09,1),(MCHRGB10,1),(MCHRGB11,1),    X
               (MCHRGB12,1),(MCHRGB13,1),(MCHRGB14,1),(MCHRGB15,1),    X
               (MCHRGB16,1),(MCHRGB17,1),(MCHRGB18,1),(MCHRGB19,1),    X
               (MCHRGB20,1),(MCHRGB21,1),(MCHRGB22,1),(MCHRGB23,1),    X
               (MCHRGB24,1),(MCHRGB25,1),(MCHRGB26,1),(MCHRGB27,1),    X
               (MCHRGB28,1),(MCHRGB29,1),(MCHRGB30,1),(MCHRGB31,1)
         DS    6F
         DSGEN (RTYREG1,32),(RTYREG2,32)
         DSGEN (REGUNU,8),                                             X
               (HREG0,1),(HREG1,1),(HREG2,1),(HREG3,1),(HREG4,1),      X
               (HREG5,1),(HREG6,1),(HREG7,1),(RETRG23,16)
         DSGEN (RTYRG400,1),(RTYRG401,1),(RTYRG402,1),(RTYRG403,1),    X
               (RTYRG404,1),(RTYRG405,1),(RTYRG406,1),(RTYRG407,1),    X
               (RTYRG408,1),(RTYRG409,1),(RTYRG410,1),(RTYRG411,1),    X
               (RTYRG412,1),(RTYRG413,1),(RTYRG414,1),(RTYRG415,1),    X
               (RTRUNSED,1),(RTYRG417,3),(RTYRG420,3),(RTYUNSD,2),     X
               (RTYRG425,3),(RTYRG428,3),(RTYNOTUS,1)
         DSGEN (CTRLDWD,32)
         DSGEN (SYSREG00,1),(SYSREG01,1),(SYSREG02,1),(SYSREG03,1),    X
               (SYSREG04,1),(SYSREG05,1),(SYSREG06,1),(SYSREG07,1),    X
               (SYSREG08,1),(SYSREG09,1),(SYSREG10,1),(SYSREG11,1),    X
               (SYSREG12,1),(SYSREG13,1),(SYSREG14,1),(SYSREG15,1),    X
               (SYSREG16,1),(SYSREG17,1),(SYSREG18,1),(SYSREG19,1),    X
               (SYSREG20,1),(SYSREG21,1),(SYSREG22,1),(SYSREG23,1),    X
               (SYSREG24,1),(SYSREG25,1),(SYSREG26,1),(SYSREG27,1),    X
               (SYSREG28,1),(SYSREG29,1),(SYSREG30,1),(SYSREG31,1)
         EJECT
IFCSI145 CSECT
ENTRYPTR DC    A(EDIT)
         DC    A(PEDIT)            POINTER TO EDIT SECTION
REG9     DS    F
SCSIZE   DC    H'190'                                          @ZA30677
ROUTINES EQU   *
LOGREG   EQU   2
@FAILCCW DS    0F
         USING *,15
         STM   14,12,12(13)
         SR    7,7
         IC    7,FCCW(LOGREG)
FCCW     EQU   48
         B     COMMON
@UNIT    DS    0F
         USING *,15
         STM   14,12,12(13)
         SR    7,7
         IC    7,91(LOGREG)
         B     COMMON
@DEVADR  DS    0F
         USING *,15
         STM   14,12,12(13)
         SR    7,7                 LOAD DEVICE ADDRESS
         IC    7,74(LOGREG)
         SLL   7,8
         IC    7,75(LOGREG)
COMMON   EQU   *
         BALR  12,0
         USING *,12
         L     1,R9ADR
         L     9,0(1)
         SR    1,1
         IC    1,1(9)              ITERATIONS
         LR    5,1
         SLL   5,2
         AR    5,3                 COMPUTE COUNTER ADDRESS PAST TEXT
         LH    4,DUMP
LOOP1    CH    4,0(3)              TEST FOR EMPTY/FULL
         BNE   STORE
         CH    7,2(3)              FULL - COMPARE WITH STORED DATA
         BE    BUMP
         LA    3,4(3)              NOT SAME - GO TO NEXT TEXT CELL
         LA    5,2(5)
         BCT   1,LOOP1
         B     FULL                ALL CELLS FULL - NO MATCH
DUMP     DC    X'FFFF'
DUMP2    DC    H'1'
STORE    EQU   *
         STH   4,0(3)              STORE NEW TEXT DATA
         STH   7,2(3)
BUMP     EQU   *
         LH    6,0(5)              BUMP COUNTER BY ONE
         AH    6,DUMP2
         STH   6,0(5)
FULL     EQU   *
         LM    14,12,12(13)
         BR    14
*
*        SAVE  DATE RANGE
*
         DROP  15
         DROP  12
         USING CI145,R2
         USING IFCSI145,R9
*
XDATE1   CLC   XDATE(L4),HEX00          IS DATE ZERO
         BE    EXIT
         CLC   L0(L4,R3),HEX00    IS LOW DATE = ZERO ?
         BNE   XDATE2
         MVC   L0(L4,R3),XDATE    IF YES MOVE IN DATE
XDATE2   EQU   *
         CLC   XDATE(L4),L0(R3)         CHECK AGAINST LOW DATE
         BL    SAVELO                   BR-THIS IS LOWER
         CLC   XDATE(L4),L4(R3)         CHECK AGAIN HI
         BH    SAVEHI
EXIT     BR    R14                      RETURN
SAVEHI   MVC   L4(L4,R3),XDATE          SAVE HI DATE IN COUNTER
         B     EXIT
SAVELO   MVC   L0(L4,R3),XDATE          SAVE LO
         B     EXIT
HEX00    DC    F'0'
R9ADR    DC    A(REG9)
WHERETO  TM    XCSWS+L1,X'02'     IS THIS AN INTERFACE CONTROL CHECK
         BCR   8,R14              IF NOT RETURN
         ST    R7,SAVER           SAVE THE REGISTER
         LA    R7,QUIT-6          GET ADDRESS OF END OF TABLE
         ST    R7,REG9            STORE NEW ADDRESS
         L     R7,SAVER           RELOAD THE REGISTER
         BR    R14
SAVER    DC    F'0'
*
* THIS ROUTINE DETERMINES IF THE RECORD BEING PROCESSED HAS A LOGOUT
* BY CHECKING THE TOTAL LENGTH OF THE RECORD WHICH IS FOUND IN THE
* TWO BYTES PRECEDING THE RECORD. IF THERE IS NO LOGOUT THE SUM
* ROUTINES THAT EXIST TO ADD THAT INFORMATION MUST BE BYPASSED.
*
LOGOUT   ST    R7,SAVER           SAVE REGISTER                 YM05678
         LA    R7,XKEY            GET ADDRESS OF RECORD         YM05678
         BCTR  R7,0               BACKUP TO RECORD LENGTH       YM05678
         CLI   L1(R7),T21         IS THIS VS2 RELEASE 2         YM05678
         BNE   NOTVS2             NO-GO TO CHECK RECORD LENGTH  YM05678
         CLI   L0(R7),X'A0'       DOES RECORD HAVE A LOGOUT     YM05678
         BL    NOLOG              TOO SMALL - NO LOG            YM05678
         L     R7,SAVER           LOG O.K. ADD TO COUNTERS      YM05678
         BR    R14                RETURN                        YM05678
NOTVS2   CLI   L0(R7),X'60'       DOES RECORD HAVE LOGOUT       YM05678
         BNL   RETURN             YES - RETURN                  YM05678
NOLOG    LA    R7,QUIT-L6         NO LOGOUT DO NOT SUM BITS     YM05678
         ST    R7,REG9            STORE UPDATED POINTER         YM05678
RETURN   L     R7,SAVER           RELOAD REGISTER               YM05678
         BR    R14                RETURN
T21      EQU   21
*                        SPECIAL ROUTINES REQUIRED
EDIT     EQU   *
         SPECIAL XDATE1,00000000,SPACE=4
*
*        LABELS NEEDED FOR HEADER
*
         LABEL ' '            SKIP TO CH 1
         LABEL 'DAY YEAR   DAY YEAR'
         LABEL 'INBOARD DATE RANGE','TO'
         LABEL '---MODEL---','---SERIAL---'
         LABEL '---CHANNEL NUMBER--'
         LABEL 'CHANNEL INBOARD SUMMARY FOR  INTEGRATED CHANNELS'
         LABEL 'NUMBER OF RECORDS EXAMINED ='
         LABEL '--------TITLE--------','TOTAL'
*
         LABEL 'DEVICE ADDRESS SUMMARY (MAX- 10 VALUES)'
         LABEL ' '
         LABEL ' '
         LABEL ' '
         LABEL ' '
         LABEL ' '
         LABEL ' '
         LABEL ' '
         LABEL ' '
         LABEL ' '
         LABEL ' '
         LABEL 'FAILING CCW SUMMARY(MAX-10 VALUES)'
         LABEL 'CMND CODE'
         LABEL ' '
         LABEL ' '
         LABEL ' '
         LABEL ' '
         LABEL ' '
         LABEL ' '
         LABEL ' '
         LABEL ' '
         LABEL ' '
         LABEL ' '
         LABEL '--------TITLE--------                TOTAL',           C
               '--------TITLE--------                TOTAL'
         SPECIAL @DEVADR,00001010,SPACE=30
         SPECIAL @FAILCCW,00001010,SPACE=30
         SUM        XCDC
         SUM        XCCC
         SUM        XIFC
         SPECIAL LOGOUT,0,SPACE=0                               YM05678
         LABEL 'CHAN DATA CHK'
         LABEL 'CHAN CTRL CHK'
         LABEL 'IF CTRL CHK'
         SUM   MCHRG00
         SUM   MCHRG01
         SUM   MCHRG02
         SUM   MCHRG03
         SUM   MCHRG04
         SUM   MCHRG05
         SUM   MCHRG06
         SUM   MCHRG07
         SUM   MCHRG08
         SUM   MCHRG09
         SUM   MCHRG10
         SUM   MCHRG11
         SUM   MCHRG12
         SUM   MCHRG13
         SUM   MCHRG14
         SUM   MCHRG15
         SUM   MCHRG16
         SUM   MCHRG17
         SUM   MCHRG18
         SUM   MCHRG19
         SUM   MCHRG20
         SUM   MCHRG21
         SUM   MCHRG22
         SUM   MCHRG23
         SUM   MCHRG24
         SUM   MCHRG25
         SUM   MCHRG26
         SUM   MCHRG27
         SUM   MCHRG28
         SUM   MCHRG29
         SUM   MCHRG30
         SUM   MCHRG31
         SUM   MCHRGB00
         SUM   MCHRGB01
         SUM   MCHRGB02
         SUM   MCHRGB03
         SUM   MCHRGB04
         SUM   MCHRGB05
         SUM   MCHRGB06
         SUM   MCHRGB07
         SUM   MCHRGB08
         SUM   MCHRGB09
         SUM   MCHRGB10
         SUM   MCHRGB11
         SUM   MCHRGB12
         SUM   MCHRGB13
         SUM   MCHRGB14
         SUM   MCHRGB15
         SUM   MCHRGB16
         SUM   MCHRGB17
         SUM   MCHRGB18
         SUM   MCHRGB19
         SUM   MCHRGB20
         SUM   MCHRGB21