         MACRO
&NAME    SVC34 &MESG                  , issue OS command
         LCLC  &L1,&L2,&L3
&L1      SETC  '$'.'&SYSNDX'.'A'
&L2      SETC  '$'.'&SYSNDX'.'B'
&L3      SETC  '$'.'&SYSNDX'.'C'
&NAME    DS    0H                     , align
         LA    1,&L1                  , branch around constant
         B     &L3
&L1      DC    AL2(&L2-&L1),AL2(0)    , text length, flags
         DC    C&MESG                 , command text
&L2      EQU   *                      , end of message
&L3      DS    0H                     , alignment again
         SR    0,0                    , indicate master console
         SVC   34                     , issue command
         MEND
