         MACRO
&NAME    DISABLE &KEY=ZERO,&MODE=SUP
&NAME    MODESET KEY=&KEY,MODE=&MODE
         MEND
