         MACRO
&NAME    GETPAGE &SP=245,&REG=R4
*        R4 HAS ADDRESS OF POINTER TO PAGE
*        R 15 HAS RETURN CODE
&NAME    DISABLE KEY=ZERO,MODE=SUP
         CNOP  0,4
         BAL   &REG,*+8                 BRANCH AROUND
         DC    AL4(0)
         GETMAIN EC,LV=4096,A=(&REG),SP=&SP,BNDRY=PAGE
         DS    0H
         L     R1,0(&REG)               GET ADDRESS OF PAGE INTO R1
         XC    0(256,R1),0(R1)          CLEAR FIRST PART OF AREA
         MEND
