         MACRO
&NAME  MESSAGE &NUMBER
         SPACE
&NAME    CNOP  2,4                      ALIGN
         LA    R1,&NUMBER               INPUT FOR MESSAGE ROUTINE
         L     R15,MSGADDR              ENTRY -> MESSAGE ROUTINE
         LA    R14,*+10                 RETURN ->
         BR    R15                      GO TO MESSAGE ROUTINE
         DC    V(MSG0&NUMBER)           IDENTIFY FOR LE-XREF
         SPACE
         MEND
