         MACRO
&NAME    SUBENTRY &CSECT=YES,&BASES=(13),&RENT=NO,&RWA=,&RWALNG=0
         LCLA  &NBASE,&S,&OFFSET
.*             MACRO-ID. 'SUBENTRY'
.*             AUTHOR.   DON HIGGINS.
.*             DATE WRITTEN.  07/28/70.
.*             REMARKS.  THIS MACRO GENERATES THE CODE TO ESTABLISH A
.*                       CSECT WITH SAVE AREA AND BASE REGISTER USING
.*                       STANDARD OS LINKAGE CONVENTIONS.
.*             REV1 11/14/74 ADD REENTRANT OPTION WITH WORK AREA
.*                 1.  FOR REENTRANT LINKAGE YOU MUST SPECIFY
.*                     A.  RENT=YES
.*                     B.  AT LEAST ONE BASE REGISTER OTHER THAN 13
.*                         SUCH AS BASES=(R12)
.*                 2.  OPTIONALLY YOU CAN SPECIFY A DSECT NAME AND
.*                     LENGTH FOR A WORK AREA BUILT BEHIND SAVE AREA.
.*                     FOR EXAMPLE  RWADSECT=MYWORK,RWALNG=8
.*                     NOTE THAT THIS WORK AREA LENGTH MUST ALSO BE
.*                     SPECIFIED AT SUBEXIT TIME TO CORRECTLY CALCULATE
.*                     THE FREEMAIN LENGTH.
         AIF   ('&CSECT'(1,1) EQ 'N').NOCSECT
&NAME    CSECT
         AGO   .STM
.NOCSECT ANOP
&NAME    DS    0D
.STM     ANOP
         AIF   ('&RENT'(1,1) EQ 'N').NORENT
.RENT    ANOP
         STM   14,12,12(13)
         BAL   &BASES(1),16(15)
         USING &NAME+8,&BASES(1)
         DC    CL8'&NAME'
         LA    0,72+&RWALNG
         GETMAIN R,LV=(0)
         ST    1,8(13)
         ST    13,4(1)
         LM    14,1,12(13)
         L     13,8(13)
         AIF   (&RWALNG EQ 0).GEN
         USING &RWA-72,13
         AGO   .GEN
.NORENT  ANOP
         STM   14,12,12(13)
         BAL   15,88(15)
         DC    9D'0'
         DC    CL8'&NAME'
         ST    15,8(13)
         ST    13,4(15)
         LR    13,15
         AIF   (T'&BASES(1) NE 'N').CHKR13
         AIF   (&BASES(1) EQ 13).GENB13
         AGO   .GENBX
.CHKR13  ANOP
         AIF   ('&BASES'(2,3) EQ 'R13').GENB13
.GENBX   ANOP
         LR    &BASES(1),13
         USING &NAME+8,&BASES(1)
         AGO   .GEN
.GENB13  ANOP
         USING &NAME+8,13
.GEN     ANOP
&NBASE   SETA  N'&BASES
&S       SETA  1
.L1      ANOP
&S       SETA  &S+1
         AIF   (&S GT &NBASE).EXIT
&OFFSET  SETA  &OFFSET+4095
         LA    &BASES(&S),4095(&BASES(&S-1))
         USING &NAME+8+&OFFSET,&BASES(&S)
         AGO   .L1
.EXIT    ANOP
         MEND
