         MACRO
&NAME    #FRAME &DIR,&N,&IMAGE,&TITLE=NO
&NAME    DS   0H .
         LA    R14,&IMAGE .          TRMIO IMAGE ADDRESS (TO)
         AIF   ('&TITLE' EQ 'YES').TITLS
         AGO   .CK01
.TITLS   ANOP
         MVC   0(79,R14),#TT1&N
         LA    R14,79(,R14)
         MVC   0(79,R14),#TT2&N
         LA    R14,79(,R14)
         MVC   0(79,R14),#TT3&N
         LA    R14,79(,R14)
*
**       AUTO TITLE FEATURE INVOKED
*
         SPACE
.CK01    AIF    ('&DIR' EQ 'FORWARD').FOR
         AIF    ('&DIR' EQ 'F').FOR
         AIF    ('&DIR' EQ 'BACKWARD').BAK
         AIF    ('&DIR' EQ 'B').BAK
         MNOTE 9,'DIRECTION SPECIFICATION MISSING OR INVALID'
         MEXIT
.FOR     ANOP
         L     R15,#SCR&N .    TO LENGTH
         LR    R1,R15 .        FROM LENGTH
         L     R0,#NOW&N  .    CURRENT STACK FRAME (FROM)
         MVCL  R14,R0
         L     R0,#TOP&N .     POINT TO TOP
         L     R1,#NOW&N .     POINT TO
         A     R1,#SCR&N .              NEW CURRENT
         ST    R1,#NOW&N .                         AND LIMIT IT
         C     R1,#END&N .     -RESETTING
         BL    *+8 .                      IF
         ST    R0,#NOW&N .                   AT END
         MEXIT
.BAK     ANOP
         MEND
