         MACRO
&NAME    LOGDCBLK &DSECT=YES                                     BFG001
         AIF   ('&DSECT' NE 'YES').INLINE                        BFG001
LOGDCBLK DSECT                                                   BFG001
***********************************************************************
*                                                                BFG001
*   LOG TASK DCB WORK AREA                                       BFG001
*                                                                BFG001
***********************************************************************
         SPACE 2                                                 BFG001
LOGDCHN  DS    A                   CHAINFIELD                    BFG001
LOGDDCB  DCB   DSORG=PS,LRECL=80,RECFM=FBA,BLKSIZE=800,MACRF=PM  BFG001
LOGDOPEN OPEN  (LOGDDCB,(OUTPUT)),MF=L                           BFG001
LOGDFLG  DS    X                   FLAG BYTE                     BFG001
LOGDPG   EQU   X'80'               IF ON NO EJECT ON NEXT SCREEN BFG001
LOGDLEN  EQU   *-LOGDCBLK                                        BFG001
         MEXIT                                                   BFG001
.INLINE  ANOP                                                    BFG001
&NAME    DC    A(0)                CHAIN FIELD                   BFG001
         DCB   DSORG=PS,LRECL=80,RECFM=FBA,BLKSIZE=800,MACRF=PM  BFG001
         OPEN  (0,(OUTPUT)),MF=L                                 BFG001
         DC    X'00'               FLAG BYTE                     BFG001
         MEND                                                    BFG001
