         MACRO
&NAME    Z    &DC
         AIF  ('&NAME' EQ '').NONAM
&NAME  DS   0H .
.NONAM   ANOP
         DC   CL79&DC
         MEND
