         MACRO
&NAME    PFKEY  &BLOCK=IOCB,&TYPE=IOCB,&KEYGEN=NO,                     X
               &CLEAR=,&ENTER=,&ATTN=,&CNCL=,&DEF=,                    X
               &K1=,&K2=,&K3=,&K4=,&K5=,&K6=,                          X
               &K7=,&K8=,&K9=,&K10=,&K11=,&K12=
         COPY  DCMSGBLS
         SPACE
*                                                                     *
*        I N P U T    A N A L Y S I S                                **
*                                                                   ***
*                                            AID / PF KEY SELECTOR ****
*                                                                   ***
*                                                                    **
*                                                                     *
         SPACE
         CLI   &TYPE.AID,X'00'
         BH    PFT&SYSNDX
         CLI   &TYPE.AID,X'7C'
         BNH   PFT&SYSNDX
         B     PFK&SYSNDX .
PFT&SYSNDX  DS   0H .
.PKEYS   ANOP
         AIF   ('&KEYGEN' EQ '').KDFLT
.KK1     ANOP
         AIF   ('&K1' EQ '').KK2
         CLI   &TYPE.AID,AIDPF1
         BE    &K1 .                             <=====   P F K 1
.KK2     ANOP
         AIF   ('&K2' EQ '').KK3
         CLI   &TYPE.AID,AIDPF2
         BE    &K2 .                             <=====   P F K 2
.KK3     ANOP
         AIF   ('&K3' EQ '').KK4
         CLI   &TYPE.AID,AIDPF3
         BE    &K3 .                             <=====   P F K 3
.KK4     ANOP
         AIF   ('&K4' EQ '').KK5
         CLI   &TYPE.AID,AIDPF4
         BE    &K4 .                             <=====   P F K 4
.KK5     ANOP
         AIF   ('&K5' EQ '').KK6
         CLI   &TYPE.AID,AIDPF5
         BE    &K5.                              <=====  1P F K 5
.KK6     ANOP
         AIF   ('&K6' EQ '').KK7
         CLI   &TYPE.AID,AIDPF6
         BE    &K6 .                             <=====   P F K 6
.KK7     ANOP
         AIF   ('&K7' EQ '').KK8
         CLI   &TYPE.AID,AIDPF7
         BE    &K7 .                             <=====   P F K 7
.KK8     ANOP
         AIF   ('&K8' EQ '').KK9
         CLI   &TYPE.AID,AIDPF8
         BE    &K8 .                             <=====   P F K 8
.KK9     ANOP
         AIF   ('&K9' EQ '').KK10
         CLI   &TYPE.AID,AIDPF9
         BE    &K9 .                             <=====   P F K 9
.KK10    ANOP
         AIF   ('&K10' EQ '').KK11
         CLI   &TYPE.AID,AIDPF10
         BE    &K10 .                            <=====   P F K 1 0
.KK11    ANOP
         AIF   ('&K11' EQ '').KK12
         CLI   &TYPE.AID,AIDPF11
         BE    &K11 .                            <=====   P F K 1 1
.KK12    ANOP
         AIF   ('&K12' EQ '').KEND
         CLI   &TYPE.AID,AIDPF12
         BE    &K12 .                            <=====   P F K 1 2
         AGO   .KEND
.KDFLT   ANOP
         SPACE
*
*        DEFAULT PFK KEYNAMES / FUNCTIONS USED
*
         SPACE
         MEXIT
.KEND    ANOP
PFK&SYSNDX  EQU   *
         SPACE
.CLR     ANOP
         AIF   ('&CLEAR' EQ '').CNCLR
         CLI   &TYPE.AID,AIDCLR
         BE    &CLEAR .                          <=====   C L E A R
.CNCLR   ANOP
         AIF   ('&CNCL' EQ '').ATN
         CLI   &TYPE.AID,AIDCAN
         BE    &CNCL .                           <=====   C A N C L
.ATN     ANOP
         AIF   ('&ATTN' EQ '').ENTR
         CLI   &TYPE.AID,AIDPA1
         BE    &ATTN .                           <=====   A T T E N
.ENTR    ANOP
         AIF   ('&DEF' EQ 'YES').ENTBR
         AIF   ('&DEF' EQ 'ENTER').ENTBR
         AIF   ('&ENTER' EQ '').NER
         CLI   &TYPE.AID,AIDENT
         BE    &ENTER .                          <=====   E N T E R
.NER     ANOP
         AIF   ('&DEF' EQ 'NO').NODEF
         AIF   ('&DEF' EQ '').NODEF
         B     &DEF
.NODEF   ANOP
         AGO   .OUT
.ENTBR   ANOP
         AIF   ('&ENTER' EQ '').NOENTR
*
*        NOTE: ALL OTHER AID VALUES TREATED AS ENTER  <====   E N T E R
*
         B     &ENTER .
         AGO   .OUT
.NOENTR  MNOTE 9,'*** DEFAULT/ENTER/TYPE OPERANDS REQUIRED ***'
         MEXIT
.OUT     ANOP
         SPACE
*                                                                     *
**                                                                    *
***                                     END OF PFK SELECTION CODE     *
**                                                                    *
*                                                                     *
         SPACE
         MEND
