         MACRO
&NAME    ZT   &I
         LCLA &LL
         LCLA &HJ
         LCLA &HR
         LCLA &HL
         AIF  ('&NAME' EQ '').NONAM
&NAME  DS   0H .
.NONAM   ANOP
         AIF   (K'&I GT 56).TOLONG
&LL      SETA  K'&I
&HJ      SETA  59-&LL
&HL      SETA  &HJ/2
&HR      SETA  &HJ-&HL
         DC    &HL.C' '
         DC    C&I
         DC    &HR.C' '
         SPACE
         MEXIT
.TOLONG  MNOTE 9,'CONSTANT ITEM MUST BE 56 CHARACTERS OR LESS'
         MEND
