       TITLE   'IFCEF165 MODEL 165 CPU EDIT TABLE 4'
*  DSGEN MACRO     DSGEN MACRO     DSGEN MACRO     DSGEN MACRO        *
         SPACE 2
         MACRO
&NAME    DSGEN ,
.*                            THIS MACRO GENERATES ONE DSECT WORD
.*                                 FORMATTED FOR THE SUBJECT LOG RECORD
.*                                 EACH OPERAND HAS TWO SUB LISTS. THE
.*                                 FIRST IS THE NAME OF THE LOG ITEM
.*                                 WHILE THE SECOND IS THE # OF BITS TO
.*                                 ALLOCATE FOR THIS ITEM. ITEMS MUST
.*                                 BE DEFINED CONTIGUOUSLY WITHOUT GAPS
.*                                 UNUSED BIT GROUPS MUST BE GIVEN
.*                                 DUMMY NAMES. THE NAMES PROVIDED FOR
.*                                 THE LOG ITEMS MAY THEN BE USED IN
.*                                 THE CONVERSION MACRO INSTRUCTIONS.
         GBLC &ITEM(2000)                                      @YL02021
         GBLA &ITEMNBR,&BITS(2000),&SHIFT(2000)                @YL02021
         LCLB  &ONLY1,&CTIND                                   @YL02021
         LCLA  &START1,&START2,&END1,&END2                     @YL02021
         LCLC  &SYMBOL,&EQUSYM                                 @YL02021
         LCLA  &OP,&COUNT,&BYTE,&EQUCNT                        @YL02021
         ACTR  100000                                          @YL02021
.START   AIF   (N'&SYSLIST(&OP+1) LT 3).LOOP                   @YL02021
         AIF   ('&SYSLIST(&OP+1,3)' EQ 'EQU').LOOP     TEST FOR EQU
  AIF   ('&SYSLIST(&OP+1,3)' EQ '' OR '&SYSLIST(&OP+1,4)' EQ '').ERR1
         AIF   ('&SYSLIST(&OP+1,3)' GT '&SYSLIST(&OP+1,4)').ERR3
&START1  SETA  &SYSLIST(&OP+1,3)        GET START COUNT OF 1   @YL02021
&START2  SETA  &SYSLIST(&OP+1,4)        GET FIRST END COUNT    @YL02021
         AGO   .SET2A                   BRANCH AROUND          @YL02021
.ERR1    MNOTE '**FIRST SYMBOL CONCATENATION INCOMPLETE**'     @YL02021
         MEXIT                                                 @YL02021
.SET2A   AIF   ('&SYSLIST(&OP+1,5)' EQ ''AND '&SYSLIST(&OP+1,6)' EQ '' X
               ).SET2                   TEST FOR NO SECOND     @YL02021
  AIF   ('&SYSLIST(&OP+1,5)' EQ '' OR '&SYSLIST(&OP+1,6)' EQ '').ERR2
         AIF   ('&SYSLIST(&OP+1,5)' GT '&SYSLIST(&OP+1,6)').ERR3
&END1    SETA  &SYSLIST(&OP+1,5)        GET START COUNT OF 2   @YL02021
&END2    SETA  &SYSLIST(&OP+1,6)        GET END COUNT OF 2     @YL02021
         AGO   .LOOP                                           @YL02021
.SET2    ANOP                                                  @YL02021
&ONLY1   SETB  1                        INDICATE ONLY ONE CONCATENATION
         AGO   .LOOP                                           @YL02021
.ERR2    MNOTE '**SECOND SYMBOL CONCATENATION INCOMPLETE**'    @YL02021
         MEXIT                                                 @YL02021
.ERR3    MNOTE '**START GREATER THAN END CONCATENATION**'      @YL02021
         MEXIT                                                 @YL02021
.LOOP    ANOP                                                  @YL02021
&OP      SETA  &OP+1                                           @YL02021
         AIF   (&OP GT N'&SYSLIST).DONE      TEST IF ALL DONE  @YL02021
&ITEMNBR SETA  &ITEMNBR+1                                      @YL02021
         AIF   ('&SYSLIST(&OP,2)' NE '').OK1                   @YL02021
         MNOTE '**NULL BIT COUNT FIELD**'                      @YL02021
         MEXIT                                                 @YL02021
.OK1     ANOP                                                  @YL02021
&SYMBOL  SETC  '&SYSLIST(&OP,1)'                               @YL02021
         AIF   ('&SYMBOL' NE '').OK                            @YL02021
*              *****     LOG ITEM SYMBOL NOT PROVIDED     *****
         AIF   ('&SYSLIST(&OP,3)' NE 'EQU').CNT                @YL02021
         AGO   .START                   GET NEXT               @YL02021
.OK      AIF   (N'&SYSLIST(&OP) LT 3).NO3    TEST FOR OLD FORMAT
         AIF   ('&SYSLIST(&OP,3)' EQ 'EQU').EQU   TEST FOR EQU @YL02021
         AIF   (&ONLY1).OK2             TEST FOR ONLY ONE CONCAT
&SYMBOL  SETC  '&SYMBOL.&START1.&END1'       GET 1 AND 2 CONCAT
         AGO   .NO3                     BRANCH AROUND          @YL02021
.OK2     ANOP                                                  @YL02021
&SYMBOL  SETC  '&SYMBOL.&START1'        GET 1 CONCATENATED     @YL02021
.NO3     ANOP                                                  @YL02021
&SYMBOL  EQU   *+&BYTE                                         @YL02021
&ITEM(&ITEMNBR) SETC '&SYMBOL'          GET LABEL IN GLOBAL    @YL02021
&BITS(&ITEMNBR) SETA &SYSLIST(&OP,2)                           @YL02021
&SHIFT(&ITEMNBR) SETA &COUNT-&BYTE*8                           @YL02021
.CNT     ANOP                                                  @YL02021
&CTIND   SETB  1                        SET COUNT INDICATOR    @YL02021
&COUNT   SETA  &COUNT+&SYSLIST(&OP,2)                          @YL02021
&BYTE    SETA  &COUNT/8                                        @YL02021
         AIF   (N'&SYSLIST(&OP) LT 3).START  TEST FOR OLD FORMAT
         AIF   (&ONLY1).TSTST           TEST FOR ONLY ONE CONCAT
         AIF   (&END1 EQ &END2).TSTST   TEST FOR SECOND END    @YL02021
&END1    SETA  &END1+1                  INCREMENT COUNT        @YL02021
&OP      SETA  &OP-1                    DECREMENT INCREMENT    @YL02021
         AGO   .LOOP                    GENERATE NEXT          @YL02021
.TSTST   ANOP                                                  @YL02021
         AIF   (&START1 EQ &START2).LPDONE   TEST FOR END      @YL02021
         AIF   (&ONLY1).NSET1           TEST FOR ONLY ONE CONCAT
&END1    SETA  &SYSLIST(&OP,5)          RE-INIT SECOND START COUNT
.NSET1   ANOP                                                  @YL02021
&OP      SETA  &OP-1                    DECREMENT INDEX        @YL02021
&START1  SETA  &START1+1                INCREMENT FIRST COUNT  @YL02021
         AGO   .LOOP                    GO DO NEXT             @YL02021
.LPDONE  ANOP                                                  @YL02021
&ONLY1   SETB  0                        CLEAR INDICATOR        @YL02021
         AGO   .START                   GO TEST FOR MORE SUB-LISTS
.DONE    AIF   (&COUNT-&COUNT/8*8 NE 0).ERR  TEST FOR MULTIPLE OF EIGHT
         AIF   (&CTIND EQ 0).END        NO DS IF NO COUNT      @YL02021
&COUNT   SETA  &COUNT/8                 GET NUMBER OF BYTES    @YL02021
&NAME    DS    &COUNT.C                                        @YL02021
.END     MEXIT                                                 @YL02021
.ERR     MNOTE '**BIT COUNT FLDS DO NOT TOTAL MULTIPLE OF 8**' @YL02021
         MEXIT                                                 @YL02021
.EQU     AIF   ('&SYSLIST(&OP,4)' NE '').EQU1     TEST FOR NULL LABEL
.ERR4    MNOTE '**EQU OPERAND OMITTED OR NOT FOUND**'          @YL02021
         MEXIT                                                 @YL02021
.EQU1    AIF   (&SYSLIST(&OP,2) LT 16).EQU2  COUNT OVER FIFTEEN
*****               THE FOLLOWING STATEMENT                *****
*****     NUMBER OF BITS EXCEED 15 - DO NOT USE AS BIN     *****
.EQU2    ANOP                                                  @YL02021
&EQUCNT  SETA  0                        CLEAR COUNTER          @YL02021
&EQUSYM  SETC  '&SYSLIST(&OP,4)'        GET EQU OPERAND        @YL02021
.EQULOP  ANOP                                                  @YL02021
&EQUCNT  SETA  &EQUCNT+1                INCREMENT INDEX        @YL02021
         AIF   ('&ITEM(&EQUCNT)' EQ '&EQUSYM').EQUOUT  LABEL FOUND?
         AIF   (&EQUCNT EQ &ITEMNBR).ERR4    ALL TESTED?       @YL02021
         AGO   .EQULOP                  NO-GET NEXT            @YL02021
.EQUOUT  ANOP                                                  @YL02021
&ITEM(&ITEMNBR) SETC '&SYMBOL'          GET LABEL NAME         @YL02021
&BITS(&ITEMNBR) SETA &SYSLIST(&OP,2)    GET NUMBER OF BITS     @YL02021
&SHIFT(&ITEMNBR) SETA &SHIFT(&EQUCNT)   GET SHIFT COUNT        @YL02021
&SYMBOL  EQU   &EQUSYM                  THIS SYMBOL EQUATED    @YL02021
         AGO   .START                   RETURN FOR NEXT        @YL02021
         MEND                                                  @YL02021
         EJECT                                                 @YL02021
         MACRO
         LINEND
.*                            THIS MACRO IS USED ONLY BY THE LINE
.*                                 MACRO TO SET THE NUMBER OF ENTRIES
.*                                 ASSOCIATED WITH EACH LINE.
         GBLA  &NRENTS
         GBLC &NRENTSX
         AIF   (&NRENTS EQ 0).NORENTS   TEST FOR NO COUNT
         ORG   &NRENTSX
         DC    FL1'&NRENTS'
         ORG
&NRENTS  SETA  0
.NORENTS ANOP
B&SYSNDX EQU   *
&NRENTSX SETC  'B&SYSNDX'
         MEND
*
         MACRO                                                 @YL02021
         BIN   ,                                               @YL02021
.*                                 &SYSLIST(&OP,1) - NAME OF LOG ITEM
.*                                      RECORD DSECT           @YL02021
.*                                 $SYSLIST(&OP,2) - NBR OF SPACES
.*                                      TO SKIP ON MULTIPLE    @YL02021
.*                                      PRINT OR NBR OF SPACES @YL02021
.*                                      TO BACK UP FROM COLUMN FOR
.*                                      START OF PRINTING. THE LETTER
.*                                      B PRECEEDS THE NUMBER (B5) IF
.*                                      THE LATTER IS DESIRED. OMISSION
.*                                      OF THIS OPERAND FORCES OPTION 2
.*                                      WITH BACKUP SPACING EQUAL TO
.*                                 THE NUMBER OF BITS IN THE ITEM
.*                                 DEFINITION (VIA MACRO 'DSGEN').
.*                            A LIMIT OF 15 BITS IS IMPOSED FOR THE
.*                                 TOTAL NUMBER OF BITS TO PRINT.
         GBLA  &INITIAL                                        @YL02021
         GBLB  &DIAGTST,&DIAGSET,&DIAGLIN                      @YL02021
         GBLC &ITEM(2000)                                      @YL02021
         GBLA &ITEMNBR,&BITS(2000),&SHIFT(2000),&NRENTS        @YL02021
         GBLC  &DSECT                                          @YL02021
         LCLB  &B,&SUB                                         @YL02021
         LCLA  &IBITS,&NDX,&ISHIFT,&K                          @YL02021
         LCLA  &TEMP,&T,&OP                                    @YL02021
         LCLC  &S                                              @YL02021
         AIF   (&DIAGTST EQ 0).NOMSG                           @YL02021
         AIF   (&INITIAL EQ 0).NOMSG                           @YL02021
         AIF   (&DIAGLIN EQ 1).NOMSG                           @YL02021
         MNOTE '**NO LINE ASSOCIATED WITH THIS DATA**'         @YL02021
*****THE FOLLOWING GENERATED FOR TEST PURPOSES*****            @YL02021
*        LINE                                                  @YL02021
         LINE                                                  @YL02021
.NOMSG   ANOP                                                  @YL02021
         AIF   (K'&SYSLIST(1) EQ K'&SYSLIST(1,1)).LOOP         @YL02021
&SUB     SETB  1                                               @YL02021
.LOOP    ANOP                                                  @YL02021
&OP      SETA  &OP+1                                           @YL02021
.LOOP1   ANOP                                                  @YL02021
&NDX     SETA  &NDX+1                                          @YL02021
         AIF   ('&ITEM(&NDX)' EQ '&SYSLIST(&OP,1)').FOUND      @YL02021
         AIF   (&NDX LT &ITEMNBR).LOOP1                        @YL02021
         MNOTE '**LOG ITEM NOT DEFINED**'                      @YL02021
         MEXIT                                                 @YL02021
.FOUND   ANOP                                                  @YL02021
&ISHIFT  SETA  &SHIFT(&NDX)                                    @YL02021
&IBITS   SETA  &BITS(&NDX)                                     @YL02021
&T       SETA  &IBITS-1                                        @YL02021
&B       SETB  0                                               @YL02021
         AIF   (&IBITS GT 0 AND &IBITS LT 16).SUB0             @YL02021
         MNOTE '**NO. OF BITS OUTSIDE RANGE OF 1-15**'         @YL02021
         MEXIT                                                 @YL02021
.SUB0    AIF   (&SUB EQ 1).SUBA                                @YL02021
         AIF   ('&SYSLIST(2)' EQ '').BACKUP                    @YL02021
&K       SETA  K'&SYSLIST(2)                                   @YL02021
&B       SETB  ('&SYSLIST(2)'(1,1) EQ 'B')                     @YL02021
&S       SETC  '&SYSLIST(2)'(&B+1,&K-&B)                       @YL02021
         AGO   .SUBB                                           @YL02021
.SUBA    ANOP                                                  @YL02021
         AIF   ('&SYSLIST(&OP,2)' EQ '').BACKUP                @YL02021
&K       SETA  K'&SYSLIST(&OP,2)                               @YL02021
&B       SETB  ('&SYSLIST(&OP,2)'(1,1) EQ 'B')                 @YL02021
&S       SETC  '&SYSLIST(&OP,2)'(&B+1,&K-&B)                   @YL02021
.SUBB    ANOP                                                  @YL02021
&T       SETA  &S                                              @YL02021
.BACKUP  ANOP                                                  @YL02021
&NRENTS  SETA  &NRENTS+1                                       @YL02021
&TEMP    SETA  &ISHIFT                                         @YL02021
         AIF   (&IBITS NE 1 OR &B NE 0).BIN2                   @YL02021
         DC    AL.12(&SYSLIST(&OP,1)-&DSECT),XL.4'&TEMP'       @YL02021
         AGO   .OUT                                            @YL02021
.BIN2    AIF   ('&SYSLIST(&OP,2)' NE '').BIN3                  @YL02021
&B       SETB  1                                               @YL02021
.BIN3    ANOP                                                  @YL02021
         DC    AL.12(&SYSLIST(&OP,1)-&DSECT),XL.4'C'           @YL02021
         DC    BL.1'&B',AL.7(&T),AL.4(&IBITS),FL.4'&ISHIFT'    @YL02021
.OUT     ANOP                                                  @YL02021
&NDX     SETA  0                                               @YL02021
         AIF   (&SUB EQ 0).OUTA                                @YL02021
         AIF   (&OP LT N'&SYSLIST).LOOP                        @YL02021
.OUTA    ANOP                                                  @YL02021
         MEND                                                  @YL02021
         EJECT                                                 @YL02021
         MACRO
         HEX
.*                            THIS MACRO FACILITATES GENERATION OF THE
.*                                 TABLE ENTRIES SPECIFYING HEX TYPE
.*                                 CONVERSIONS.
.*                            &SYSLIST(&OP,1) - NAME OF DATA ITEM TO BE
.*                                 CONVERTED
.*                            &SYSLIST(&OP,2) - # OF SPACES TO SKIP ON
.*                                 MULTIPLE PRINT OR NBR OF SPACES TO
.*                                 BACK UP FROM COLUMN FOR START OF
.*                                 PRINTING. THE LETTER B PRECEEDS THE
.*                                 NUMBER (B8) IF THE LATTER OPTION IS
.*                                 DESIRED. OMISSION OF THIS OPERAND
.*                                 FORCES OPTION 2 WITH BACKUP SPACING
.*                                 EQUAL TO THE NUMBER OF BYTES SPECI-
.*                                 FIED BY THE NEXT OPERAND (TWICE THIS
.*                                 NUMBER IF SUFFIX IS EXPLICITLY OR
.*                                 IMPLICITLY B).
.*                            &SYSLIST(&OP,3) - NUMBER OF BYTES TO
.*                                 PROCESS. THIS NUMBER IS SUFFIXED
.*                                 WITH AN L,R, OR B TO STIPULATE
.*                                 PRINTING OF THE LEFT HALF, RIGHT
.*                                 HALF, OR BOTH HALVES OF THE BYTE
.*                                 RESPECTIVELY. OMISSION OF THIS
.*                                 OPERAND DEFAULTS TO B WITH THE NUM-
.*                                 BER OF BYTES EQUAL TO THE ITEM LNGTH
.*                            A NEW ENTRY IS GENERATED ONLY WHEN NECES-
.*                                 SARY. THIS MACRO MUST BE THE FIRST
.*                                 MACRO INSTRUCTION ISSUED FOR THE
.*                                 SUBJECT LINE(S).
         GBLC &ITEM(2000),&DSECT
         GBLA &ITEMNBR,&BITS(2000),&SHIFT(2000),&NRENTS
         GBLA  &INITIAL
         GBLB  &DIAGTST,&DIAGSET,&DIAGLIN
         LCLB  &B,&SUB
         LCLA  &IBITS,&NDX,&ISHIFT,&K,&T,&CODE,&BYTESP,&OP
         LCLC  &S,&LETTER
         AIF   (&DIAGTST EQ 0).NOMSG
         AIF   (&INITIAL EQ 0).NOMSG
         AIF   (&DIAGLIN EQ 1).NOMSG
         MNOTE '**NO LINE ASSOCIATED WITH THIS DATA**'
*****THE FOLLOWING GENERATED FOR TEST PURPOSES*****
*        LINE
         LINE
.NOMSG   ANOP
         AIF   (K'&SYSLIST(1) EQ K'&SYSLIST(1,1)).LOOP
&SUB     SETB  1
.LOOP    ANOP
&OP      SETA  &OP+1
.LOOP1   ANOP
&NDX     SETA  &NDX+1
         AIF   ('&ITEM(&NDX)' EQ '&SYSLIST(&OP,1)').FOUND
         AIF   (&NDX LT &ITEMNBR).LOOP1
         MNOTE '**LOG ITEM NOT DEFINED**'
         MEXIT
.FOUND   ANOP
&ISHIFT  SETA  &SHIFT(&NDX)
&IBITS   SETA  &BITS(&NDX)
         AIF   (&ISHIFT EQ 0 OR &ISHIFT EQ 4).ALIGN
.ERR     MNOTE '**DATA NOT ALLIGNED ON HEX OR BYTE BOUNDARY**'
         MEXIT
.ALIGN   ANOP
&CODE    SETA  1
         AIF   (&SUB EQ 1).SUBA
&K       SETA  K'&SYSLIST(3)
         AGO   .SUBB
.SUBA    ANOP
&K       SETA  K'&SYSLIST(&OP,3)
.SUBB    ANOP
         AIF   (&IBITS-(&IBITS/4)*4 EQ 0).OK
         MNOTE '**BIT LENGTH SPECIFICATION INCONSISTENT WITH CONTROL**'
         MEXIT
.OK      AIF   (&SUB EQ 1).SUBC
         AIF   ('&SYSLIST(3)' EQ '').USEDEFN
&LETTER  SETC  '&SYSLIST(3)'(&K,1)
&S       SETC  '&SYSLIST(3)'(1,&K-1)
         AGO   .SUBD
.SUBC    ANOP
         AIF   ('&SYSLIST(&OP,3)' EQ '').USEDEFN
&LETTER  SETC  '&SYSLIST(&OP,3)'(&K,1)
&S       SETC  '&SYSLIST(&OP,3)'(1,&K-1)
.SUBD    ANOP
&BYTESP  SETA  &S
         AIF   ('&LETTER' EQ 'B').BOTH
         AIF   ('&LETTER' EQ 'L').LEFT
&CODE    SETA  2
         AGO   .L
.LEFT    ANOP
&CODE    SETA  1
         AGO   .L
.USEDEFN ANOP
&BYTESP  SETA  &IBITS/8
.BOTH    AIF   (&ISHIFT NE 0).ERR
&CODE    SETA  3
&T       SETA  &BYTESP*2-1
&S       SETC  '&T'
.OK2     AIF   (&ISHIFT EQ 0).L
&CODE    SETA  2
.L       ANOP
&B       SETB  1
         AIF   (&SUB EQ 1).SUBE
         AIF   ('&SYSLIST(2)' EQ '').BACKUP
&K       SETA  K'&SYSLIST(2)
&B       SETB  ('&SYSLIST(2)'(1,1) EQ 'B')
&S       SETC  '&SYSLIST(2)'(&B+1,&K-&B)
         AGO   .SUBF
.SUBE    ANOP
         AIF   ('&SYSLIST(&OP,2)' EQ '').BACKUP
&K       SETA  K'&SYSLIST(&OP,2)
&B       SETB  ('&SYSLIST(&OP,2)'(1,1) EQ 'B')
&S       SETC  '&SYSLIST(&OP,2)'(&B+1,&K-&B)
.SUBF    ANOP
.BACKUP  ANOP
&NRENTS  SETA  &NRENTS+1
         AIF   (&BYTESP GT 0 AND &BYTESP LT 16).SUB0
         MNOTE '**NO. OF BYTES OUTSIDE RANGE OF 1-15**'
         MEXIT
.SUB0    AIF   (&SUB EQ 1).SUBG
         DC    AL.12(&SYSLIST(1)-&DSECT),XL.4'A'
         AGO   .SUBH
.SUBG    ANOP
         DC    AL.12(&SYSLIST(&OP,1)-&DSECT),XL.4'A'
.SUBH    ANOP
         DC    BL.1'&B',FL.7'&S',AL.4(&BYTESP),FL.4'&CODE'
.OUT     ANOP
&NDX     SETA  0
         AIF   (&SUB EQ 0).OUTA
         AIF   (&OP LT N'&SYSLIST).LOOP
.OUTA    ANOP
         MEND
         MACRO                                                 @YL02021
         LSTART ,                                              @YL02021
.*                            THIS MACRO IS ISSUED WHEN THE LABEL AREA
.*                                 OF THE TABLE IS TO BEGIN.   @YL02021
         GBLA  &LABELNR                                        @YL02021
         GBLC  &LBL(100)                                       @YL02021
         GBLC &LABELS(2000)                                    @YL02021
         GBLA  &LBLCTR(100)                                    @YL02021
         GBLB  &DIAGTST,&DIAGSET,&DIAGLIN                      @YL02021
         LCLA  &NDX,&CTR                                       @YL02021
         AIF   (&DIAGTST EQ 0).NODIAG                          @YL02021
         AIF   (&DIAGSET EQ 0).NODIAG                          @YL02021
         MNOTE '**NO LABEL ASSOCIATED WITH LAST SET**'         @YL02021
***** THE FOLLOWING GENERATED FOR TEST PURPOSES *****          @YL02021
*        LABEL '%%%%%%%%%%%%%%%%%%%%%%%%%%%%%%%%%%%%%%%%%%%%%%%%'
               LABEL '%%%%%%%%%%%%%%%%%%%%%%%%%%%%%%%%%%%%%%%%%%%%%%%%'
.NODIAG  ANOP                                                  @YL02021
         LINEND                                                @YL02021
&CTR     SETA  1                                               @YL02021
.LOOP    ANOP                                                  @YL02021
&NDX     SETA  &NDX+1                                          @YL02021
         AIF   (&LBLCTR(&CTR) NE &NDX).NOLBL                   @YL02021
&LBL(&CTR) DC  C'&LABELS(&NDX)'                                @YL02021
&CTR     SETA  &CTR+1                                          @YL02021
         AGO   .LOOPCTL                                        @YL02021
.NOLBL   ANOP                                                  @YL02021
         DC    C'&LABELS(&NDX)'                                @YL02021
.LOOPCTL AIF   (&NDX LT &LABELNR).LOOP                         @YL02021
         MEND                                                  @YL02021
         EJECT                                                 @YL02021
         MACRO                                                 @YL02021
&NAME    LABEL &LABEL1,&LABEL2,&LABEL3,&LABEL4,&LABEL5,&LABEL6,        C
               &LABEL7,&LABEL8                                 @YL02021
.*                                 THIS MACRO ALLOWS LABELS TO @YL02021
.*                                 BE SPECIFIED FOR A GIVEN LINE. THE
.*                                 LABELS SHOULD BE ENCLOSED IN QUOTA-
.*                                 TION MARKS. THE COLUMN AND LINE END
.*                                 CONTROLS WILL BE INSERTED BY THE
.*                                 MACRO. OMITTED OPERANDS MEAN NO
.*                                 LABEL REQUIRED FOR RESPECTIVE
.*                                 COLUMN.                     @YL02021
         GBLC &LABELS(2000)                                    @YL02021
         GBLC  &LBL(100)                                       @YL02021
         GBLA  &LBLCTR(100)                                    @YL02021
         GBLA  &LABELNR                                        @YL02021
         GBLA  &NRENTS,&LPTR,&INITIAL                          @YL02021
         GBLB  &DIAGTST,&DIAGSET,&DIAGLIN                      @YL02021
         LCLC  &MARGIN,&TACK                                   @YL02021
         LCLC  &TEXT                                           @YL02021
         LCLA  &OP,&K,&START,&NRCHAR,&REMAIN                   @YL02021
         AIF   (&INITIAL EQ 0).DIAGCLR                         @YL02021
         AIF   (&DIAGTST EQ 0).DIAGCLR                         @YL02021
         AIF   (&DIAGLIN EQ 1).DIAGCLR                         @YL02021
         MNOTE '**NO LINE ASSOCIATED WITH PREVIOUS LABEL**'    @YL02021
***** THE FOLLOWING GENERATED FOR TEST PURPOSES *****          @YL02021
*        LINE                                                  @YL02021
         LINE                                                  @YL02021
.DIAGCLR ANOP                                                  @YL02021
&DIAGSET SETB  0                                               @YL02021
&DIAGLIN SETB  0                                               @YL02021
&MARGIN  SETC  '*'                                             @YL02021
         AIF   ('&NAME' EQ '').LOOPOUT                         @YL02021
&LPTR    SETA  &LPTR+1                                         @YL02021
&LBL(&LPTR) SETC '&NAME'                                       @YL02021
&LBLCTR(&LPTR) SETA &LABELNR+1                                 @YL02021
.LOOPOUT ANOP                                                  @YL02021
&OP      SETA  &OP+1                                           @YL02021
&K       SETA  K'&SYSLIST(&OP)                                 @YL02021
         AIF (&K GE 2).NORM                                    @YL02021
&K       SETA  2                                               @YL02021
.NORM    ANOP                                                  @YL02021
&START   SETA  2                                               @YL02021
         AIF (&OP LT N'&SYSLIST).NOTLAST                       @YL02021
&MARGIN  SETC  '$'                                             @YL02021
.NOTLAST ANOP                                                  @YL02021
&NRCHAR  SETA  8                                               @YL02021
&TACK    SETC  ''                                              @YL02021
.LOOPIN  ANOP                                                  @YL02021
&REMAIN  SETA  &K-&START                                       @YL02021
         AIF (&REMAIN GE 8).MORE                               @YL02021
&TACK    SETC  '&MARGIN'                                       @YL02021
&NRCHAR  SETA  &REMAIN                                         @YL02021
.MORE    ANOP                                                  @YL02021
&TEXT    SETC  ''                                              @YL02021
         AIF (&REMAIN EQ 0).ENDTEXT                            @YL02021
&TEXT    SETC  '&SYSLIST(&OP)'(&START,&NRCHAR)                 @YL02021
.ENDTEXT ANOP                                                  @YL02021
&LABELNR SETA  &LABELNR+1                                      @YL02021
&LABELS(&LABELNR) SETC '&TEXT'.'&TACK'                         @YL02021
&START   SETA  &START+8                                        @YL02021
         AIF ('&TACK' EQ '').LOOPIN                            @YL02021
         AIF ('&TACK' EQ '*').LOOPOUT                          @YL02021
         MEND                                                  @YL02021
         EJECT                                                 @YL02021
         MACRO
&NAME    ROUTINE &LOGITEM,&RNAME
         GBLA  &NRENTS
         GBLC  &DSECT,&CSECT
         GBLA  &INITIAL
         GBLB  &DIAGTST,&DIAGSET,&DIAGLIN
         AIF   (&DIAGTST EQ 0).NOMSG
         AIF   (&INITIAL EQ 0).NOMSG
         AIF   (&DIAGLIN EQ 1).NOMSG
         MNOTE '**NO LINE ASSOCIATED WITH THIS ROUTINE**'
*****THE FOLLOWING GENERATED FOR TEST PURPOSES*****
*        LINE
         LINE
.NOMSG   ANOP
&NAME    DC    AL.12(&LOGITEM-&DSECT),XL.4'D'
         DC    AL2(&RNAME-&CSECT)
&NRENTS  SETA  &NRENTS+1
         MEND
         EJECT                                                 @YL02021
         MACRO
&NAME    LINE  &DATA,&LABEL,&SKIP=
.*                            THIS MACRO ESTABLISHES THE MARGINS OR
.*                                 COLUMN SETTINGS FOR EACH LINE. IT
.*                                 GENERATES NECESSARY CARRIAGE CONTROL
.*                                 ENTRIES. LASTLY IT DETERMINES THE
.*                                 NUMBER OF ENTRIES ASSOCIATED WITH
.*                                 THE PREVIOUS LINE AND STORES THAT #
.*                                 INTO THE APPROPRIATE BYTE.
.*                            &DATA(1) - CHARACTER POSITION TO BEGIN
.*                                 DATA.
.*                            &DATA(2) - # OF SPACES BETWEEN SUCCESSIVE
.*                                 DATA COLUMN STARTING CHARACTERS.
.*                            &LABEL(1) - CHAR. POS. TO BEGIN LABELS.
.*                            &LABEL(2) - # SPACES BETWEEN LINE'S LABEL
.*                                 STARTING CHARACTERS.
.*                            &SKIP= - # OF LINES TO ADVANCE CARRIAGE
.*                                 TO BEGIN NEXT PRINTED LINE.
.*                            NEW ENTRIES ARE GENERATED ONLY WHEN
.*                                 NECESSARY. OMISSION OF ITEMS MEANS
.*                                 THEY HAVE NOT CHANGED SINCE PREVIOUS
.*                                 SETTINGS. A LINE MACRO IS REQUIRED
.*                                 FOR EACH PRINTED LINE. IF NO SETTING
.*                                 CHANGES ARE REQUIRED ALL OPERANDS
.*                                 ARE OMITTED IN WHICH CASE ONLY THE
.*                                 # OF ENTRIES FOR THE PREVIOUS LINE
.*                                 IS COMPUTED. THIS MACRO MUST BE THE
.*                                 FIRST MACRO INSTRUCTION ISSUED FOR
.*                                 THE SUBJECT LINE
         GBLA  &DB,&DT,&LB,&LT,&NRENTS
         GBLA  &LASTCC,&INITIAL
         GBLC  &NRENTSX
         GBLC  &CARRCON
         GBLB  &TEST
         GBLB  &DIAGTST,&DIAGSET,&DIAGLIN
         LCLA  &S
         AIF   (&INITIAL EQ 0 OR &DIAGTST EQ 0).DIAGSET
         AIF   (&DIAGSET EQ 0).DIAGSET
         MNOTE '**NO LABEL ASSOCIATED WITH LAST SET**'
***** THE FOLLOWING GENERATED FOR TEST PURPOSES *****
*        LABEL '%%%%%%%%%%%%%%%%%%%%%%%%%%%%%%%%%%%%%%%%%%%%%%%%'
               LABEL '%%%%%%%%%%%%%%%%%%%%%%%%%%%%%%%%%%%%%%%%%%%%%%%%'
.DIAGSET ANOP
&DIAGSET SETB  1
&DIAGLIN SETB  1
&NAME    DS    0C
         AIF   (&INITIAL EQ 0).FIRSTLN
         LINEND
         AGO   .NTFIRST
.FIRSTLN ANOP
&NRENTSX SETC  'N&SYSNDX'
&INITIAL SETA  1
N&SYSNDX EQU   *
.NTFIRST ANOP
         DC    AL1(0)
         AIF   ('&DATA(1)' EQ '').CKDTABS
         AIF   (&DATA(1) EQ &DB).CKDTABS
&DB      SETA  &DATA(1)
         AGO   .AA
.CKDTABS AIF   ('&DATA(2)' EQ '').NCDATA
         AIF   (&DATA(2) EQ &DT).NCDATA
         AGO   .CC
.AA      AIF   ('&DATA(2)' EQ '').BB