         TITLE 'IFCEI145 MODEL 145 CHANNEL EDIT'
         MACRO
&NAME    DSGEN
.*                            THIS MACRO GENERATES ONE DSECT WORD
.*                                 FORMATTED FOR THE SUBJECT LOG RECORD
.*                                 EACH OPERAND HAS TWO SUB LISTS. THE
.*                                 FIRST IS THE NAME OF THE LOG ITEM
.*                                 WHILE THE SECOND IS THE # OF BITS TO
.*                                 ALLOCATE FOR THIS ITEM. ITEMS MUST
.*                                 BE DEFINED CONTIGUOUSLY WITHOUT GAPS
.*                                 UNUSED BIT GROUPS MUST BE GIVEN
.*                                 DUMMY NAMES. THE NAMES PROVIDED FOR
.*                                 THE LOG ITEMS MAY THEN BE USED IN
.*                                 THE CONVERSION MACRO INSTRUCTIONS.
         GBLC &ITEM(1500)
         GBLA &ITEMNBR,&BITS(1500),&SHIFT(1500)
         LCLB  &ONLY1,&CTIND
         LCLA  &START1,&START2,&END1,&END2
         LCLC  &SYMBOL,&EQUSYM
         LCLA  &OP,&COUNT,&BYTE,&EQUCNT
         ACTR  100000
.START   AIF   (N'&SYSLIST(&OP+1) LT 3).LOOP
         AIF   ('&SYSLIST(&OP+1,3)' EQ 'EQU').LOOP     TEST FOR EQU
  AIF   ('&SYSLIST(&OP+1,3)' EQ '' AND '&SYSLIST(&OP+1,4)' EQ '').ERR1
  AIF   ('&SYSLIST(&OP+1,3)' EQ '' OR '&SYSLIST(&OP+1,4)' EQ '').ERR1
         AIF   ('&SYSLIST(&OP+1,3)' GT '&SYSLIST(&OP+1,4)').ERR3
&START1  SETA  &SYSLIST(&OP+1,3)        GET START COUNT OF 1
&START2  SETA  &SYSLIST(&OP+1,4)        GET FIRST END COUNT
         AGO   .SET2A                   BRANCH AROUND
.ERR1    MNOTE '**FIRST SYMBOL CONCATENATION INCOMPLETE**'
         MEXIT
.SET2A   AIF   ('&SYSLIST(&OP+1,5)' EQ ''AND '&SYSLIST(&OP+1,6)' EQ '' X
               ).SET2                   TEST FOR NO SECOND
  AIF   ('&SYSLIST(&OP+1,5)' EQ '' OR '&SYSLIST(&OP+1,6)' EQ '').ERR2
         AIF   ('&SYSLIST(&OP+1,5)' GT '&SYSLIST(&OP+1,6)').ERR3
&END1    SETA  &SYSLIST(&OP+1,5)        GET START COUNT OF 2
&END2    SETA  &SYSLIST(&OP+1,6)        GET END COUNT OF 2
         AGO   .LOOP
.SET2    ANOP
&ONLY1   SETB  1                        INDICATE ONLY ONE CONCATENATION
         AGO   .LOOP
.ERR2    MNOTE '**SECOND SYMBOL CONCATENATION INCOMPLETE**'
         MEXIT
.ERR3    MNOTE '**START GREATER THAN END CONCATENATION**'
         MEXIT
.LOOP    ANOP
&OP      SETA  &OP+1
         AIF   (&OP GT N'&SYSLIST).DONE      TEST IF ALL DONE
&ITEMNBR SETA  &ITEMNBR+1
         AIF   ('&SYSLIST(&OP,2)' NE '').OK1
         MNOTE '**NULL BIT COUNT FIELD**'
         MEXIT
.OK1     ANOP
&SYMBOL  SETC  '&SYSLIST(&OP,1)'
         AIF   ('&SYMBOL' NE '').OK
*              *****     LOG ITEM SYMBOL NOT PROVIDED     *****
         AIF   ('&SYSLIST(&OP,3)' NE 'EQU').CNT
         AGO   .START                   GET NEXT
.OK      AIF   (N'&SYSLIST(&OP) LT 3).NO3    TEST FOR OLD FORMAT
         AIF   ('&SYSLIST(&OP,3)' EQ 'EQU').EQU   TEST FOR EQU
         AIF   (&ONLY1).OK2             TEST FOR ONLY ONE CONCAT
&SYMBOL  SETC  '&SYMBOL.&START1.&END1'       GET 1 AND 2 CONCAT
         AGO   .NO3                     BRANCH AROUND
.OK2     ANOP
&SYMBOL  SETC  '&SYMBOL.&START1'        GET 1 CONCATENATED
.NO3     ANOP
&SYMBOL  EQU   *+&BYTE
&ITEM(&ITEMNBR) SETC '&SYMBOL'          GET LABEL IN GLOBAL
&BITS(&ITEMNBR) SETA &SYSLIST(&OP,2)
&SHIFT(&ITEMNBR) SETA &COUNT-&BYTE*8
.CNT     ANOP
&CTIND   SETB  1                        SET COUNT INDICATOR
&COUNT   SETA  &COUNT+&SYSLIST(&OP,2)
&BYTE    SETA  &COUNT/8
         AIF   (N'&SYSLIST(&OP) LT 3).START  TEST FOR OLD FORMAT
         AIF   (&ONLY1).TSTST           TEST FOR ONLY ONE CONCAT
         AIF   (&END1 EQ &END2).TSTST   TEST FOR SECOND END
&END1    SETA  &END1+1                  INCREMENT COUNT
&OP      SETA  &OP-1                    DECREMENT INCREMENT
         AGO   .LOOP                    GENERATE NEXT
.TSTST   ANOP
         AIF   (&START1 EQ &START2).LPDONE   TEST FOR END
         AIF   (&ONLY1).NSET1           TEST FOR ONLY ONE CONCAT
&END1    SETA  &SYSLIST(&OP,5)          RE-INIT SECOND START COUNT
.NSET1   ANOP
&OP      SETA  &OP-1                    DECREMENT INDEX
&START1  SETA  &START1+1                INCREMENT FIRST COUNT
         AGO   .LOOP                    GO DO NEXT
.LPDONE  ANOP
&ONLY1   SETB  0                        CLEAR INDICATOR
         AGO   .START                   GO TEST FOR MORE SUB-LISTS
.DONE    AIF   (&COUNT-&COUNT/8*8 NE 0).ERR  TEST FOR MULTIPLE OF EIGHT
         AIF   (&CTIND EQ 0).END        NO DS IF NO COUNT
&COUNT   SETA  &COUNT/8                 GET NUMBER OF BYTES
&NAME    DS    &COUNT.C
.END     MEXIT
.ERR     MNOTE '**BIT COUNT FLDS DO NOT TOTAL MULTIPLE OF 8**'
         MEXIT
.EQU     AIF   ('&SYSLIST(&OP,4)' NE '').EQU1     TEST FOR NULL LABEL
.ERR4    MNOTE '**EQU OPERAND OMITTED OR NOT FOUND**'
         MEXIT
.EQU1    AIF   (&SYSLIST(&OP,2) LT 16).EQU2  COUNT OVER FIFTEEN
*****               THE FOLLOWING STATEMENT                *****
*****     NUMBER OF BITS EXCEED 15 - DO NOT USE AS BIN     *****
.EQU2    ANOP
&EQUCNT  SETA  0                        CLEAR COUNTER
&EQUSYM  SETC  '&SYSLIST(&OP,4)'        GET EQU OPERAND
.EQULOP  ANOP
&EQUCNT  SETA  &EQUCNT+1                INCREMENT INDEX
         AIF   ('&ITEM(&EQUCNT)' EQ '&EQUSYM').EQUOUT  LABEL FOUND?
         AIF   (&EQUCNT EQ &ITEMNBR).ERR4    ALL TESTED?
         AGO   .EQULOP                  NO-GET NEXT
.EQUOUT  ANOP
&ITEM(&ITEMNBR) SETC '&SYMBOL'          GET LABEL NAME
&BITS(&ITEMNBR) SETA &SYSLIST(&OP,2)    GET NUMBER OF BITS
&SHIFT(&ITEMNBR) SETA &SHIFT(&EQUCNT)   GET SHIFT COUNT
&SYMBOL  EQU   &EQUSYM                  THIS SYMBOL EQUATED
         AGO   .START                   RETURN FOR NEXT
         MEND
         EJECT
*  LINE MACRO     LINE MACRO     LINE MACRO     LINE MACRO            *
         SPACE 2
         MACRO
&NAME    LINE  &DATA,&LABEL,&SKIP=
.*                            THIS MACRO ESTABLISHES THE MARGINS OR
.*                                 COLUMN SETTINGS FOR EACH LINE. IT
.*                                 GENERATES NECESSARY CARRIAGE CONTROL
.*                                 ENTRIES. LASTLY IT DETERMINES THE
.*                                 NUMBER OF ENTRIES ASSOCIATED WITH
.*                                 THE PREVIOUS LINE AND STORES THAT #
.*                                 INTO THE APPROPRIATE BYTE.
.*                            &DATA(1) - CHARACTER POSITION TO BEGIN
.*                                 DATA.
.*                            &DATA(2) - # OF SPACES BETWEEN SUCCESSIVE
.*                                 DATA COLUMN STARTING CHARACTERS.
.*                            &LABEL(1) - CHAR. POS. TO BEGIN LABELS.
.*                            &LABEL(2) - # SPACES BETWEEN LINE'S LABEL
.*                                 STARTING CHARACTERS.
.*                            &SKIP= - # OF LINES TO ADVANCE CARRIAGE
.*                                 TO BEGIN NEXT PRINTED LINE.
.*                            NEW ENTRIES ARE GENERATED ONLY WHEN
.*                                 NECESSARY. OMISSION OF ITEMS MEANS
.*                                 THEY HAVE NOT CHANGED SINCE PREVIOUS
.*                                 SETTINGS. A LINE MACRO IS REQUIRED
.*                                 FOR EACH PRINTED LINE. IF NO SETTING
.*                                 CHANGES ARE REQUIRED ALL OPERANDS
.*                                 ARE OMITTED IN WHICH CASE ONLY THE
.*                                 # OF ENTRIES FOR THE PREVIOUS LINE
.*                                 IS COMPUTED. THIS MACRO MUST BE THE
.*                                 FIRST MACRO INSTRUCTION ISSUED FOR
.*                                 THE SUBJECT LINE
         GBLA  &DB,&DT,&LB,&LT,&NRENTS
         GBLA  &LASTCC,&INITIAL
         GBLC  &NRENTSX
         GBLC  &CARRCON
         GBLB  &TEST
         LCLA  &S
&NAME    DS    0C
         AIF   (&INITIAL EQ 0).FIRSTLN
         LINEND
         AGO   .NTFIRST
.FIRSTLN ANOP
&NRENTSX SETC  'N&SYSNDX'
&INITIAL SETA  1
N&SYSNDX EQU   *
.NTFIRST ANOP
         DC    AL1(0)
         AIF   ('&DATA(1)' EQ '').CKDTABS
         AIF   (&DATA(1) EQ &DB).CKDTABS
&DB      SETA  &DATA(1)
         AGO   .AA
.CKDTABS AIF   ('&DATA(2)' EQ '').NCDATA
         AIF   (&DATA(2) EQ &DT).NCDATA
         AGO   .CC
.AA      AIF   ('&DATA(2)' EQ '').BB
         AIF   (&DATA(2) EQ &DT).BB
.CC      ANOP
&DT      SETA  &DATA(2)
.BB      DC    XL2'FFFE'
         DC    FL1'&DB'
         DC    FL1'&DT'
&NRENTS  SETA  &NRENTS+1
.NCDATA  ANOP
         AIF   ('&LABEL(1)' EQ '').CKLTABS
         AIF   (&LABEL(1) EQ &LB).CKLTABS
&LB      SETA  &LABEL(1)
         AGO   .AAA
.CKLTABS AIF   ('&LABEL(2)' EQ '').NCLABEL
         AIF   (&LABEL(2) EQ &LT).NCLABEL
         AGO   .CCC
.AAA     AIF   ('&LABEL(2)' EQ '').BBB
         AIF   (&LABEL(2) EQ &LT).BBB
.CCC     ANOP
&LT      SETA  &LABEL(2)
.BBB     DC    XL2'FFFF'
         DC    FL1'&LB'
         DC    FL1'&LT'
&NRENTS  SETA  &NRENTS+1
.NCLABEL ANOP
         AIF   ('&SKIP' NE '').CONT
         AIF   (&TEST EQ 0).NOCHANG
&S       SETA  &LASTCC
         AGO   .DEFAULT
.CONT    ANOP
         AIF   (&TEST EQ 0).AB
&S       SETA  &SKIP
.DEFAULT ANOP
         ORG   &CARRCON+3
         DC    AL.3(0),AL.2(&S),AL.3(1)
         ORG
&LASTCC  SETA  &S
&TEST    SETB  0
         AGO   .DD
.AB      AIF   (&SKIP EQ &LASTCC).NOCHANG
A&SYSNDX DC    XL2'FFFB'
         DC    AL.3(0),AL.2(&SKIP),AL.3(1)
         DC    FL1'9'
&LASTCC  SETA  &SKIP
&TEST    SETB  1
&CARRCON SETC  'A&SYSNDX'
&NRENTS  SETA  &NRENTS+1
.DD      ANOP
.NOCHANG ANOP
         MEND
         EJECT
         MACRO
         BIN
.*                                 &LOGITEM - NAME OF ITEM IN LOG
.*                                      RECORD DSECT
.*                                 &SKIP$OR - NBR OF SPACES TO SKIP ON
.*                                 MULTIPLE PRINT OR NBR OF SPACES
.*                                      TO BACK UP FROM COLUMN FOR
.*                                      START OF PRINTING. THE LETTER
.*                                      B PRECEEDS THE NUMBER (B5) IF
.*                                      THE LATTER IS DESIRED. OMISSION
.*                                      OF THIS OPERAND FORCES OPTION 2
.*                                      WITH BACKUP SPACING EQUAL TO
.*                                 THE NUMBER OF BITS IN THE ITEM
.*                                 DEFINITION (VIA MACRO 'DSGEN').
.*                            A LIMIT OF 15 BITS IS IMPOSED FOR THE
.*                                 TOTAL NUMBER OF BITS TO PRINT.
         GBLC &ITEM(1500)
         GBLA &ITEMNBR,&BITS(1500),&SHIFT(1500),&NRENTS
         GBLC  &DSECT
         LCLB  &B
         LCLA  &IBITS,&NDX,&ISHIFT,&K
         LCLA  &TEMP,&T,&OP
         LCLC  &S
.LOOP    ANOP
&OP      SETA  &OP+1
.LOOP1   ANOP
&NDX     SETA  &NDX+1
         AIF   ('&ITEM(&NDX)' EQ '&SYSLIST(&OP,1)').FOUND
         AIF   (&NDX LT &ITEMNBR).LOOP1
         MNOTE *,'YOU BLEW IT'
         ROUTINE DUM,SKIPPER
         MEXIT
.FOUND   ANOP
&ISHIFT  SETA  &SHIFT(&NDX)
&IBITS   SETA  &BITS(&NDX)
&T       SETA  &IBITS-1
&B       SETB  0
         AIF   ('&SYSLIST(&OP,2)' EQ '').BACKUP
&K       SETA  K'&SYSLIST(&OP,2)
&B       SETB  ('&SYSLIST(&OP,2)'(1,1) EQ 'B')
&S       SETC  '&SYSLIST(&OP,2)'(&B+1,&K-&B)
&T       SETA  &S
.BACKUP  ANOP
&NRENTS  SETA  &NRENTS+1
&TEMP    SETA  &ISHIFT
         AIF   (&IBITS NE 1 OR &B NE 0).BIN2
         DC    AL.12(&SYSLIST(&OP,1)-&DSECT),XL.4'&TEMP'
         AGO   .OUT
.BIN2    AIF   ('&SYSLIST(&OP,2)' NE '').BIN3
&B       SETB  1
.BIN3    ANOP
         DC    AL.12(&SYSLIST(&OP,1)-&DSECT),XL.4'C'
         DC    BL.1'&B',AL.7(&T),AL.4(&IBITS),FL.4'&ISHIFT'
.OUT     ANOP
&NDX     SETA  0
         AIF   (&OP LT N'&SYSLIST).LOOP
         MEND
         EJECT
         MACRO                                                 @YM2954P
         HEX   ,                                               @YM2954P
.*                            THIS MACRO FACILITATES GENERATION OF THE
.*                                 TABLE ENTRIES SPECIFYING HEX TYPE
.*                                 CONVERSIONS.                @YM2954P
.*                            &SYSLIST(&OP,1) - NAME OF DATA ITEM TO BE
.*                                 CONVERTED                   @YM2954P
.*                            &SYSLIST(&OP,2) - # OF SPACES TO SKIP ON
.*                                 MULTIPLE PRINT OR NBR OF SPACES TO
.*                                 BACK UP FROM COLUMN FOR START OF
.*                                 PRINTING. THE LETTER B PRECEEDS THE
.*                                 NUMBER (B8) IF THE LATTER OPTION IS
.*                                 DESIRED. OMISSION OF THIS OPERAND
.*                                 FORCES OPTION 2 WITH BACKUP SPACING
.*                                 EQUAL TO THE NUMBER OF BYTES SPECI-
.*                                 FIED BY THE NEXT OPERAND (TWICE THIS
.*                                 NUMBER IF SUFFIX IS EXPLICITLY OR
.*                                 IMPLICITLY B).              @YM2954P
.*                            &SYSLIST(&OP,3) - NUMBER OF BYTES TO
.*                                 PROCESS. THIS NUMBER IS SUFFIXED
.*                                 WITH AN L,R, OR B TO STIPULATE
.*                                 PRINTING OF THE LEFT HALF, RIGHT
.*                                 HALF, OR BOTH HALVES OF THE BYTE
.*                                 RESPECTIVELY. OMISSION OF THIS
.*                                 OPERAND DEFAULTS TO B WITH THE NUM-
.*                                 BER OF BYTES EQUAL TO THE ITEM LNGTH
.*                            A NEW ENTRY IS GENERATED ONLY WHEN NECES-
.*                                 SARY. THIS MACRO MUST BE THE FIRST
.*                                 MACRO INSTRUCTION ISSUED FOR THE
.*                                 SUBJECT LINE(S).            @YM2954P
         GBLA  &BITS(1500),&ITEMNBR,&SHIFT(1500),&NRENTS       @YM2954P
         GBLC  &ITEM(1500),&DSECT                              @YM2954P
         GBLA  &INITIAL                                        @YM2954P
         GBLB  &DIAGTST,&DIAGSET,&DIAGLIN                      @YM2954P
         LCLB  &B,&SUB                                         @YM2954P
         LCLA  &IBITS,&NDX,&ISHIFT,&K,&T,&CODE,&BYTESP,&OP     @YM2954P
         LCLC  &S,&LETTER                                      @YM2954P
         ACTR  500000                                          @YM2954P
         AIF   (&DIAGTST EQ 0).NOMSG                           @YM2954P
         AIF   (&INITIAL EQ 0).NOMSG                           @YM2954P
         AIF   (&DIAGLIN EQ 1).NOMSG                           @YM2954P
         MNOTE '**NO LINE ASSOCIATED WITH THIS DATA**'         @YM2954P
*****THE FOLLOWING GENERATED FOR TEST PURPOSES*****            @YM2954P
*        LINE                                                  @YM2954P
         LINE                                                  @YM2954P
.NOMSG   ANOP                                                  @YM2954P
         AIF   (K'&SYSLIST(1) EQ K'&SYSLIST(1,1)).LOOP         @YM2954P
&SUB     SETB  1                                               @YM2954P
.LOOP    ANOP                                                  @YM2954P
&OP      SETA  &OP+1                                           @YM2954P
.LOOP1   ANOP                                                  @YM2954P
&NDX     SETA  &NDX+1                                          @YM2954P
         AIF   ('&ITEM(&NDX)' EQ '&SYSLIST(&OP,1)').FOUND      @YM2954P
         AIF   (&NDX LT &ITEMNBR).LOOP1                        @YM2954P
         MNOTE '**LOG ITEM NOT DEFINED**'                      @YM2954P
         MEXIT                                                 @YM2954P
.FOUND   ANOP                                                  @YM2954P
&ISHIFT  SETA  &SHIFT(&NDX)                                    @YM2954P
&IBITS   SETA  &BITS(&NDX)                                     @YM2954P
         AIF   (&ISHIFT EQ 0 OR &ISHIFT EQ 4).ALIGN            @YM2954P
.ERR     MNOTE '**DATA NOT ALLIGNED ON HEX OR BYTE BOUNDARY**' @YM2954P
         MEXIT                                                 @YM2954P
.ALIGN   ANOP                                                  @YM2954P
&CODE    SETA  1                                               @YM2954P
         AIF   (&SUB EQ 1).SUBA                                @YM2954P
&K       SETA  K'&SYSLIST(3)                                   @YM2954P
         AGO   .SUBB                                           @YM2954P
.SUBA    ANOP                                                  @YM2954P
&K       SETA  K'&SYSLIST(&OP,3)                               @YM2954P
.SUBB    ANOP                                                  @YM2954P
         AIF   (&K EQ 1).ERR3                                  @YM2954P
         AIF   (&IBITS-(&IBITS/4)*4 EQ 0).OK                   @YM2954P
         MNOTE '**BIT LENGTH SPECIFICATION INCONSISTENT WITH CONTROL**'
         MEXIT                                                 @YM2954P
.OK      AIF   (&SUB EQ 1).SUBC                                @YM2954P
         AIF   ('&SYSLIST(3)' EQ '').USEDEFN                   @YM2954P
&LETTER  SETC  '&SYSLIST(3)'(&K,1)                             @YM2954P
&S       SETC  '&SYSLIST(3)'(1,&K-1)                           @YM2954P
         AGO   .SUBD                                           @YM2954P
.SUBC    ANOP                                                  @YM2954P
         AIF   ('&SYSLIST(&OP,3)' EQ '').USEDEFN               @YM2954P
&LETTER  SETC  '&SYSLIST(&OP,3)'(&K,1)                         @YM2954P
&S       SETC  '&SYSLIST(&OP,3)'(1,&K-1)                       @YM2954P
.SUBD    ANOP                                                  @YM2954P
&BYTESP  SETA  &S                                              @YM2954P
         AIF   ('&LETTER' EQ 'B').BOTH                         @YM2954P
         AIF   ('&LETTER' EQ 'L').LEFT                         @YM2954P
         AIF   ('&LETTER' EQ 'R').RIGHT                        @YM2954P
.ERR3    MNOTE '**PARAMETER 3 INCOMPLETE-DSGEN DEFINITION USED**'
         AGO   .USEDEFN                                        @YM2954P
.RIGHT   ANOP                                                  @YM2954P
&CODE    SETA  2                                               @YM2954P
         AGO   .L                                              @YM2954P
.LEFT    ANOP                                                  @YM2954P
&CODE    SETA  1                                               @YM2954P
         AGO   .L                                              @YM2954P
.USEDEFN ANOP                                                  @YM2954P
&BYTESP  SETA  &IBITS/8                                        @YM2954P
.BOTH    AIF   (&ISHIFT NE 0).ERR                              @YM2954P
&CODE    SETA  3                                               @YM2954P
&T       SETA  &BYTESP*2-1                                     @YM2954P
&S       SETC  '&T'                                            @YM2954P
.OK2     AIF   (&ISHIFT EQ 0).L                                @YM2954P
&CODE    SETA  2                                               @YM2954P
.L       ANOP                                                  @YM2954P
&B       SETB  1                                               @YM2954P
         AIF   (&SUB EQ 1).SUBE                                @YM2954P
         AIF   ('&SYSLIST(2)' EQ '').BACKUP                    @YM2954P
&K       SETA  K'&SYSLIST(2)                                   @YM2954P
&B       SETB  ('&SYSLIST(2)'(1,1) EQ 'B')                     @YM2954P
&S       SETC  '&SYSLIST(2)'(&B+1,&K-&B)                       @YM2954P
         AGO   .SUBF                                           @YM2954P
.SUBE    ANOP                                                  @YM2954P
         AIF   ('&SYSLIST(&OP,2)' EQ '').BACKUP                @YM2954P
&K       SETA  K'&SYSLIST(&OP,2)                               @YM2954P
&B       SETB  ('&SYSLIST(&OP,2)'(1,1) EQ 'B')                 @YM2954P
&S       SETC  '&SYSLIST(&OP,2)'(&B+1,&K-&B)                   @YM2954P
.SUBF    ANOP                                                  @YM2954P
.BACKUP  ANOP                                                  @YM2954P
&NRENTS  SETA  &NRENTS+1                                       @YM2954P
         AIF   (&BYTESP GT 0 AND &BYTESP LT 16).SUB0           @YM2954P
         MNOTE '**NO. OF BYTES OUTSIDE RANGE OF 1-15**'        @YM2954P
         MEXIT                                                 @YM2954P
.SUB0    AIF   (&SUB EQ 1).SUBG                                @YM2954P
         DC    AL.12(&SYSLIST(1)-&DSECT),XL.4'A'               @YM2954P
         AGO   .SUBH                                           @YM2954P
.SUBG    ANOP                                                  @YM2954P
         DC    AL.12(&SYSLIST(&OP,1)-&DSECT),XL.4'A'           @YM2954P
.SUBH    ANOP                                                  @YM2954P
         DC    BL.1'&B',FL.7'&S',AL.4(&BYTESP),FL.4'&CODE'     @YM2954P
.OUT     ANOP                                                  @YM2954P
&NDX     SETA  0                                               @YM2954P
         AIF   (&SUB EQ 0).OUTA                                @YM2954P
         AIF   (&OP LT N'&SYSLIST).LOOP                        @YM2954P
.OUTA    ANOP                                                  @YM2954P
         MEND                                                  @YM2954P
         EJECT
*  ROUTINE MACRO     ROUTINE MACRO     ROUTINE MACRO     ROUTINE MACRO*
         SPACE 2
         MACRO
&NAME    ROUTINE &LOGITEM,&RNAME
         GBLC  &DSECT,&CSECT
         GBLC  &ITEM(1500)
         GBLA  &SHIFT(1500),&ITEMNBR
         GBLA  &NRENTS
         LCLA  &ISHIFT,&NDX
.LOOP    ANOP
&NDX     SETA  &NDX+1
         AIF   ('&ITEM(&NDX)' EQ '&LOGITEM').FOUND
         AIF   (&NDX LT &ITEMNBR).LOOP
         MNOTE *,'LOG ITEM NOT DEFINED'
         MEXIT
.FOUND   ANOP
&ISHIFT  SETA  &SHIFT(&NDX)
&NAME    DC    AL.12(&LOGITEM-&DSECT),XL.4'D'
         DC    AL.4(&ISHIFT),AL.12(&RNAME-&CSECT)
&NRENTS  SETA  &NRENTS+1
         MEND
         EJECT
*  LABEL MACRO     LABEL MACRO     LABEL MACRO     LABEL MACRO        *
         SPACE 2
         MACRO
&NAME    LABEL &LABEL1,&LABEL2,&LABEL3,&LABEL4,&LABEL5,&LABEL6,        C
               &LABEL7,&LABEL8
.*                            THIS MACRO ALLOWS UP TO ACHT LABELS TO
.*                                 BE SPECIFIED FOR A GIVEN LINE. THE
.*                                 LABELS SHOULD BE ENCLOSED IN QUOTA-
.*                                 TION MARKS. THE COLUMN AND LINE END
.*                                 CONTROLS WILL BE INSERTED BY THE
.*                                 MACRO. OMITTED OPERANDS MEAN NO
.*                                 LABEL REQUIRED FOR RESPECTIVE
.*                                 COLUMN. THIS MACRO WILL ALSO ALERT
.*                                 THE PROGRAMMER TO EXACTLY WHERE THE
.*                                 TABLE MUST BE BROKEN IF NECESSARY
.*                                 TO AVOID EXCEEDING THE MAXIMUM LIMIT
         GBLC &LABELS(2000)
         GBLC  &LBL(100)
         GBLA  &LBLCTR(100)
         GBLA  &LABELNR
         GBLA  &NRENTS,&LPTR
         LCLC  &MARGIN,&TACK
         LCLC  &TEXT
         LCLA  &OP,&K,&START,&NRCHAR,&REMAIN
&MARGIN  SETC  '*'
         AIF   ('&NAME' EQ '').LOOPOUT
&LPTR    SETA  &LPTR+1
&LBL(&LPTR) SETC '&NAME'
&LBLCTR(&LPTR) SETA &LABELNR+1
.LOOPOUT ANOP
&OP      SETA  &OP+1
&K       SETA  K'&SYSLIST(&OP)
         AIF (&K GE 2).NORM
&K       SETA  2
.NORM    ANOP
&START   SETA  2
         AIF (&OP LT N'&SYSLIST).NOTLAST
&MARGIN  SETC  '$'
.NOTLAST ANOP
&NRCHAR  SETA  8
&TACK    SETC  ''
.LOOPIN  ANOP
&REMAIN  SETA  &K-&START
         AIF (&REMAIN GE 8).MORE
&TACK    SETC  '&MARGIN'
&NRCHAR  SETA  &REMAIN
.MORE    ANOP
&TEXT    SETC  ''
         AIF (&REMAIN EQ 0).ENDTEXT
&TEXT    SETC  '&SYSLIST(&OP)'(&START,&NRCHAR)
.ENDTEXT ANOP
&LABELNR SETA  &LABELNR+1
&LABELS(&LABELNR) SETC '&TEXT'.'&TACK'
&START   SETA  &START+8
         AIF ('&TACK' EQ '').LOOPIN
         AIF ('&TACK' EQ '*').LOOPOUT
         MEND
         SPACE 2
         MACRO
         LSTART
.*                            THIS MACRO IS ISSUED WHEN THE LABEL AREA
.*                                 OF THE TABLE IS TO BEGIN.
         GBLC &LABELS(2000)
         GBLA  &LABELNR
         GBLC  &LBL(100)
         GBLA  &LBLCTR(100)
         LCLA  &NDX,&CTR
         LINEND
&CTR     SETA  1
.LOOP    ANOP
&NDX     SETA  &NDX+1
         AIF   (&LBLCTR(&CTR) NE &NDX).NOLBL
&LBL(&CTR) DC  C'&LABELS(&NDX)'
&CTR     SETA  &CTR+1
         AGO   .LOOPCTL
.NOLBL   ANOP
         DC    C'&LABELS(&NDX)'
.LOOPCTL AIF   (&NDX LT &LABELNR).LOOP
         MEND
         SPACE 2
         MACRO
         LINEND
.*                            THIS MACRO IS USED ONLY BY THE LINE
.*                                 MACRO TO SET THE NUMBER OF ENTRIES
.*                                 ASSOCIATED WITH EACH LINE.
         GBLA  &NRENTS
         GBLC &NRENTSX
         ORG   &NRENTSX
         DC    FL1'&NRENTS'
         ORG
&NRENTS  SETA  0
B&SYSNDX EQU   *
&NRENTSX SETC  'B&SYSNDX'
         MEND
         SPACE 2
         MACRO
         PARITY &ENTRY,&REPEAT,&SPACES,&PBITS=,&DISP=,&OFFBYTE=
         GBLC  &ITEM(1500),&DSECT
         GBLA  &SHIFT(1500),&ITEMNBR
         LCLA  &IBITS,&NDX,&ISHIFT
         DC    AL4(&ENTRY)
         DC    AL1(&REPEAT)
         DC    AL1(&SPACES)
         AIF   ('&PBITS' EQ '').HARDCD
.LOOP    ANOP
&NDX     SETA  &NDX+1
         AIF   ('&ITEM(&NDX)' EQ '&PBITS').FOUND
         AIF   (&NDX LT &ITEMNBR).LOOP
         MNOTE *,'PARITY GROUP NOT FOUND'
         MEXIT
.FOUND   ANOP
&ISHIFT  SETA  &SHIFT(&NDX)
         DC    AL.12(&PBITS-&DSECT),AL.4(&ISHIFT)
         AGO   .OUT
.HARDCD  ANOP
&ISHIFT  SETA  &OFFBYTE
         DC    AL.12(&DISP),AL.4(&ISHIFT)
.OUT     ANOP
         MEND
         GBLC  &DSECT,&CSECT
&CSECT   SETC  'IFCEI145'
&DSECT   SETC  'CI145'
IFCEI145 CSECT
CI145    DSECT
DUM      EQU   *
         DSGEN (XKEY,8),(XRELN,8),(XSWS8,9),(SWS9,1),          @XL03976C
               (SWS10,1),(XSWS11,1),                           @XL03976C
               (XSWS12,1),(XSWS13,1),(XSWS14,1),(XSWS15,1)
         DSGEN (XDUM1,32)
         DSGEN (XDATE,32)
         DSGEN (XTIME,32)
         DSGEN (XDUM2,8),(XSER,24)
         DSGEN (XMOD,16),(MCEL,16)
         DSGEN (XJOBN,64)
         DSGEN (XAIO1,16),(XAIO2,16),(XAIO3,16),(XAIO4,16)
         DSGEN (XAIO5,16),(XAIO6,16),(XAIO7,16),(XAIO8,16)
         DSGEN (XFCCWCC,8),(XFCCWDA,24),(XFCCWFL,8),(XFCCW0,8),        C
               (XFCCWCT,16)
         DSGEN (XCSWK,8),(XCSWCA,24)
         DSGEN (XCSWUS0,1),(XCSWUS1,1),(XCSWUS2,1),(XCSWUS3,1),        *
               (XCSWUS4,1),(XCSWUS5,1),(XCSWUS6,1),(XCSWUS7,1),        *
               (XCSWCS0,1),(XCSWCS1,1),(XCSWCS2,1),(XCSWCS3,1),        *
               (XCSWCS4,1),(XCSWCS5,1),(XCSWCS6,1),(XCSWCS7,1),        *
               (XCSWCT,16)
         DSGEN (XECSW,32)
         DSGEN (XDEVT1,16),(XDEVT2,16)
         DSGEN (XCHID,8),(XCUA,24)
         DSGEN (XMPIN,32),(HARDWARE,32)
         ORG   XMPIN                                           @YL02021
         DSGEN (VCUA,16),(VLGSZ,16),(HD,32)                    @YL02021
MPXCTREG DSGEN (MCHLOG00,1),(MCHLOG01,1),(MCHLOG02,1),(MCHLOG03,1),    X
               (MCHLOG04,1),(MCHLOG05,1),(MCHLOG06,1),(MCHLOG07,1),    X
               (MCHLOG08,8),(MCHLOG09,16)
         DSGEN (MBSLOGA,16),(MBSLOG01,8),(DUMMY,8)
         DSGEN (MCLOCREG,8),(CCWADDR,24)
         DSGEN (MCHRG00,1),(MCHRG01,1),(MCHRG02,1),(MCHRG03,1),        X
               (MCHRG04,1),(MCHRG05,1),(MCHRG06,1),(MCHRG07,1),        X
               (MCHRG08,1),(MCHRG09,1),(MCHRG10,1),(MCHRG11,1),        X
               (MCHRG12,1),(MCHRG13,1),(MCHRG14,1),(MCHRG15,1),        X
               (MCHRG16,1),(MCHRG17,1),(MCHRG18,1),(MCHRG19,1),        X
               (MCHRG20,1),(MCHRG21,1),(MCHRG22,1),(MCHRG23,1),        X
               (MCHRG24,1),(MCHRG25,1),(MCHRG26,1),(MCHRG27,1),        X
               (MCHRG28,1),(MCHRG29,1),(MCHRG30,1),(MCHRG31,1)
         DSGEN (MCHRGB00,1),(MCHRGB01,1),(MCHRGB02,1),(MCHRGB03,1),    X
               (MCHRGB04,1),(MCHRGB05,1),(MCHRGB06,1),(MCHRGB07,1),    X
               (MCHRGB08,1),(MCHRGB09,1),(MCHRGB10,1),(MCHRGB11,1),    X
               (MCHRGB12,1),(MCHRGB13,1),(MCHRGB14,1),(MCHRGB15,1),    X
               (MCHRGB16,1),(MCHRGB17,1),(MCHRGB18,1),(MCHRGB19,1),    X
               (MCHRGB20,1),(MCHRGB21,1),(MCHRGB22,1),(MCHRGB23,1),    X
               (MCHRGB24,1),(MCHRGB25,1),(MCHRGB26,1),(MCHRGB27,1),    X
               (MCHRGB28,1),(MCHRGB29,1),(MCHRGB30,1),(MCHRGB31,1)
         DSGEN (MPXTAG00,1),(MPXTAG01,1),(MPXTAG02,1),(MPXTAG03,1),    X
               (MPXTAG04,1),(MPXTAG05,1),(MPXTAG06,1),(MPXTAG07,1),    X
               (MPXTAG08,1),(MPXTAG09,1),(MPXTAG10,1),(MPXTAG11,1),    X
               (MPXTAG12,1),(MPXTAG13,1),(MPXTAG14,1),(MPXTAG15,1),    X
               (MPXBUSIN,8),(MPXBSOUT,8)
         DSGEN (CONSWDIN,8),                                           X
               (CONSWD00,1),(CONSWD01,1),(CONSWD02,1),(CONSWD03,1),    X
               (CONSWD04,1),(CONSWD05,1),(CONSWD06,1),(CONSWD07,1),    X
               (CONSWD08,1),(CONSWD09,1),(CONSWD10,1),(CONSWD11,1),    X
               (CONSWD12,1),(CONSWD13,1),(CONSWD14,1),(CONSWD15,1),    X
               (CONSWOUT,8)
         DSGEN (MDUNUSED,16),(MDCATNBR,8),(,8)
         DSGEN (MDREGADD,32,EQU,MDUNUSED)
         DSGEN (LOCFLG00,1),(LOCFLG01,1),(LOCFLG02,1),(LOCFLG03,1),    X
               (LOCFLG04,1),(LOCFLG05,1),(LOCFLG06,1),(LOCFLG07,1),    X
               (CHSTAT00,1),(CHSTAT01,1),(CHSTAT02,1),(CHSTAT03,1),    X
               (CHSTAT04,1),(CHSTAT05,1),(CHSTAT06,1),(CHSTAT07,1),    X
               (STORCNTH,8),(STORCNTL,8)
         DSGEN (IOCREG,32)                                     @XA21957
         DSGEN (RETCNTUN,4),(RETCNT2H,4),(RETUNUS,16),(NONRETRY,8)