*
*
*  DSGEN MACRO     DSGEN MACRO     DSGEN MACRO     DSGEN MACRO        *
         SPACE 2
         MACRO
&NAME    DSGEN &X1,&X2,&X3,&X4,&X5,&X6,&X7,&X8,&X9,&X10,&X11,&X12,&X13,X
               &X14,&X15,&X16,&X17,&X18,&X19,&X20,&X21,&X22,&X23,&X24, X
               &X25,&X26,&X27,&X28,&X29,&X30,&X31,&X32
.*                            THIS MACRO GENERATES ONE DSECT WORD
.*                                 FORMATTED FOR THE SUBJECT LOG RECORD
.*                                 EACH OPERAND HAS TWO SUB LISTS. THE
.*                                 FIRST IS THE NAME OF THE LOG ITEM
.*                                 WHILE THE SECOND IS THE # OF BITS TO
.*                                 ALLOCATE FOR THIS ITEM. ITEMS MUST
.*                                 BE DEFINED CONTIGUOUSLY WITHOUT GAPS
.*                                 UNUSED BIT GROUPS MUST BE GIVEN
.*                                 DUMMY NAMES. THE NAMES PROVIDED FOR
.*                                 THE LOG ITEMS MAY THEN BE USED IN
.*                                 THE CONVERSION MACRO INSTRUCTIONS.
         GBLC  &ITEM(2000)
         GBLA  &ITEMNBR,&BITS(2000),&SHIFT(2000)
         LCLC  &SYMBOL
         LCLA  &OP,&COUNT,&BYTE
.LOOP    ANOP
&OP      SETA  &OP+1
&ITEMNBR SETA  &ITEMNBR+1
&SYMBOL  SETC  '&SYSLIST(&OP,1)'
         AIF   ('&SYSLIST(&OP,2)' NE '').OK1
         MNOTE 'NULL BIT COUNT FIELD'
         MEXIT
.OK1     ANOP
         AIF   ('&SYMBOL' NE '').OK
         MNOTE 'LOG ITEM SYMBOL NOT PROVIDED'
         AGO   .CNT
.OK      ANOP
         AIF   ('&SYMBOL'(1,1) EQ '''').CNT                *TEMP*
&SYMBOL  EQU   *+&BYTE
&ITEM(&ITEMNBR)  SETC '&SYSLIST(&OP,1)'
&BITS(&ITEMNBR) SETA &SYSLIST(&OP,2)
&SHIFT(&ITEMNBR) SETA &COUNT-&BYTE*8
.CNT     ANOP
&COUNT   SETA  &COUNT+&SYSLIST(&OP,2)
&BYTE    SETA  &COUNT/8
         AIF (&OP LT N'&SYSLIST).LOOP
         AIF   (&COUNT NE 32).NOT32
&NAME    DS    4C
         MEXIT
.NOT32   AIF   (&COUNT NE 64).ERR
&NAME    DS    8C
         MEXIT
.ERR     MNOTE '**BIT COUNT FIELDS DO NOT TOTAL 32 OR 64**'
         MEND
*
*
         MACRO
&NAME    LINE  &DATA,&LABEL,&SKIP=
.*                            THIS MACRO ESTABLISHES THE MARGINS OR
.*                                 COLUMN SETTINGS FOR EACH LINE. IT
.*                                 GENERATES NECESSARY CARRIAGE CONTROL
.*                                 ENTRIES. LASTLY IT DETERMINES THE
.*                                 NUMBER OF ENTRIES ASSOCIATED WITH
.*                                 THE PREVIOUS LINE AND STORES THAT #
.*                                 INTO THE APPROPRIATE BYTE.
.*
.*                                 &DATA(1) - CHARACTER POSITION TO
.*                                 BEGIN DATA.
.*
.*                                 &DATA(2) - # OF SPACES BETWEEN
.*                                 SUCCESSIVE DATA COLUMN STARTING
.*                                 CHARACTERS.
.*
.*                                 &LABEL(1) - CHARACTER POSITION
.*                                 TO BEGIN LABELS.
.*
.*                                 &LABEL(2) - # OF SPACES BETWEEN
.*                                 LINE'S LABEL STARTING CHARACTERS.
.*
.*                                 &SKIP= - # OF LINES TO ADVANCE
.*                                 CARRIAGE TO BEGIN NEXT PRINTED LINE.
.*
.*                                 NEW ENTRIES ARE GENERATED ONLY WHEN
.*                                 NECESSARY. OMISSION OF ITEMS MEANS
.*                                 THEY HAVE NOT CHANGED SINCE PREVIOUS
.*                                 SETTINGS. A LINE MACRO IS REQUIRED
.*                                 FOR EACH PRINTED LINE. IF NO SETTING
.*                                 CHANGES ARE REQUIRED ALL OPERANDS
.*                                 ARE OMITTED IN WHICH CASE ONLY THE
.*                                 # OF ENTRIES FOR THE PREVIOUS LINE
.*                                 IS COMPUTED. THIS MACRO MUST BE THE
.*                                 FIRST MACRO INSTRUCTION ISSUED FOR
.*                                 THE SUBJECT LINE.
         GBLA  &DB,&DT,&LB,&LT,&NRENTS
         GBLA  &LASTCC,&INITIAL
         GBLC  &NRENTSX
         GBLC  &CARRCON
         GBLB  &TEST
         LCLA  &S
&NAME    DS    0C
         AIF   (&INITIAL EQ 0).FIRSTLN
         LINEND
         AGO   .NTFIRST
.FIRSTLN ANOP
&NRENTSX SETC  'N&SYSNDX'
&INITIAL SETA  1
N&SYSNDX EQU   *
.NTFIRST ANOP
         DC    AL1(0)
         AIF   ('&DATA(1)' EQ '').CKDTABS
         AIF   (&DATA(1) EQ &DB).CKDTABS
&DB      SETA  &DATA(1)
         AGO   .AA
.CKDTABS AIF   ('&DATA(2)' EQ '').NCDATA
         AIF   (&DATA(2) EQ &DT).NCDATA
         AGO   .CC
.AA      AIF   ('&DATA(2)' EQ '').BB
         AIF   (&DATA(2) EQ &DT).BB
.CC      ANOP
&DT      SETA  &DATA(2)
.BB      DC    XL2'FFFE'
         DC    FL1'&DB'
         DC    FL1'&DT'
&NRENTS  SETA  &NRENTS+1
.NCDATA  ANOP
         AIF   ('&LABEL(1)' EQ '').CKLTABS
         AIF   (&LABEL(1) EQ &LB).CKLTABS
&LB      SETA  &LABEL(1)
         AGO   .AAA
.CKLTABS AIF   ('&LABEL(2)' EQ '').NCLABEL
         AIF   (&LABEL(2) EQ &LT).NCLABEL
         AGO   .CCC
.AAA     AIF   ('&LABEL(2)' EQ '').BBB
         AIF   (&LABEL(2) EQ &LT).BBB
.CCC     ANOP
&LT      SETA  &LABEL(2)
.BBB     DC    XL2'FFFF'
         DC    FL1'&LB'
         DC    FL1'&LT'
&NRENTS  SETA  &NRENTS+1
.NCLABEL ANOP
         AIF   ('&SKIP' NE '').CONT
         AIF   (&TEST EQ 0).NOCHANG
&S       SETA  &LASTCC
         AGO   .DEFAULT
.CONT    ANOP
         AIF   (&TEST EQ 0).AB
&S       SETA  &SKIP
.DEFAULT ANOP
         ORG   &CARRCON+3
         DC    AL.3(0),AL.2(&S),AL.3(1)
         ORG
&LASTCC  SETA  &S
&TEST    SETB  0
         AGO   .DD
.AB      AIF   (&SKIP EQ &LASTCC).NOCHANG
A&SYSNDX DC    XL2'FFFB'
         DC    AL.3(0),AL.2(&SKIP),AL.3(1)
         DC    FL1'9'
&LASTCC  SETA  &SKIP
&TEST    SETB  1
&CARRCON SETC  'A&SYSNDX'
&NRENTS  SETA  &NRENTS+1
.DD      ANOP
.NOCHANG ANOP
         MEND
*
*
***********************************************************************
*
*
         MACRO
         BIN   &LOGITEM,&SKIP$OR
.*                                 &LOGITEM - NAME OF ITEM IN LOG DSECT
.*
.*                                 &SKIP$OR - NUMBER OF SPACES TO SKIP
.*                                 ON MULTIPLE PRINT OR NUMBER OF
.*                                 SPACES TO BACK UP FROM COLUMN FOR
.*                                 START OF PRINTING. THE LETTER B
.*                                 PRECEEDS THE NUMBER (B5) IF THE
.*                                 LATTER IS DESIRED. OMISSION OF THIS
.*                                 OPERAND FORCES OPTION 2 WITH BACKUP
.*                                 SPACING EQUAL TO THE NUMBER OF BITS
.*                                 IN THE ITEM DEFINITION (VIA MACRO
.*                                 'DSGEN'). A LIMIT OF 15 BITS IS
.*                                 IMPOSED FOR THE TOTAL NUMBER OF BITS
.*                                 TO PRINT.
         GBLC  &ITEM(2000)
         GBLA  &ITEMNBR,&BITS(2000),&SHIFT(2000),&NRENTS
         GBLC  &DSECT
         LCLB  &B
         LCLA  &IBITS,&NDX,&ISHIFT,&K
         LCLA  &TEMP,&T
         LCLC  &S
.LOOP    ANOP
&NDX     SETA  &NDX+1
         AIF   ('&ITEM(&NDX)' EQ '&LOGITEM').FOUND
         AIF   (&NDX LT &ITEMNBR).LOOP
         MNOTE '**LOG ITEM NOT FOUND**'
         ROUTINE  DUM,SKIPPER
         MEXIT
.FOUND   ANOP
&ISHIFT  SETA  &SHIFT(&NDX)
&IBITS   SETA  &BITS(&NDX)
&T       SETA  &IBITS-1
&B       SETB  0
         AIF   ('&SKIP$OR' EQ '').BACKUP
&K       SETA  K'&SKIP$OR
&B       SETB  ('&SKIP$OR'(1,1) EQ 'B')
&S       SETC  '&SKIP$OR'(&B+1,&K-&B)
&T       SETA  &S
.BACKUP  ANOP
&NRENTS  SETA  &NRENTS+1
&TEMP    SETA  &ISHIFT
A&SYSNDX DC    AL.12(&LOGITEM-&DSECT),XL.4'&TEMP'
         AIF   (&IBITS EQ 1 AND &B EQ 0).OUT
         ORG   A&SYSNDX
&B       SETB  1
         DC    AL.12(&LOGITEM-&DSECT),XL.4'C'
         DC    BL.1'&B',AL.7(&T),AL.4(&IBITS),FL.4'&ISHIFT'
.OUT     ANOP
         MEND
*
*
***********************************************************************
*
*
         MACRO
         HEX   &LOGITEM,&SKIP$OR,&BYTES
.*
.*                                 THIS MACRO FACILITATES GENERATION
.*                                 OF THE TABLE ENTRIES SPECIFYING HEX
.*                                 TYPE CONVERSIONS.
.*
.*                                 &LOGITEM - NAME OF DATA ITEM TO BE
.*                                 CONVERTED.
.*
.*                                 &SKIP$OR - NUMBER OF SPACES TO SKIP
.*                                 ON MULTIPLE PRINT OF NUMBER OF
.*                                 SPACES TO BACK UP FROM COLUMN FOR
.*                                 START OF PRINTING. THE LETTER B
.*                                 PRECEEDS THE NUMBER (B8) IF THE
.*                                 LATTER OPTION IS DESIRED. OMISSION
.*                                 OF THIS OPERAND FORCES OPTION 2 WITH
.*                                 BACKUP SPACING EQUAL TO THE NUMBER
.*                                 OF BYTES SPECIFIED BY THE NEXT
.*                                 OPERAND (TWICE THIS NUMBER IF SUFFIX
.*                                 IS EXPLICITLY OR IMPLICITLY B).
.*
.*                                 &BYTES - NUMBER OF TOTAL INPUT BYTES
.*                                 TO PROCESS. THIS NUMBER IS SUFFIXED
.*                                 WITH A L,R, OR B TO STIPULATE
.*                                 PRINTING OF THE LEFT HALF, RIGHT
.*                                 HALF, OR BOTH HALVES OF THE BYTE
.*                                 RESPECTIVELY. OMISSION OF THIS
.*                                 OPERAND DEFAULTS TO B WITH THE
.*                                 NUMBER OF BYTES EQUAL TO THE ITEM
.*                                 LENGTH.
.*
.*                                 A NEW ENTRY IS GENERATED ONLY WHEN
.*                                 NECESSARY. THIS MACRO MUST BE THE
.*                                 FIRST MACRO INSTRUCTION ISSUED FOR
.*                                 THE SUBJECT LINE(S)
         GBLC  &ITEM(2000),&DSECT
         GBLA  &ITEMNBR,&BITS(2000),&SHIFT(2000),&NRENTS
         LCLB  &B
         LCLA  &IBITS,&NDX,&ISHIFT,&K,&T,&CODE,&BYTESP
         LCLC  &S,&LETTER
.LOOP    ANOP
&NDX     SETA  &NDX+1
         AIF   ('&ITEM(&NDX)' EQ '&LOGITEM').FOUND
         AIF   (&NDX LT &ITEMNBR).LOOP
         MNOTE '**LOG ITEM NOT FOUND**'
         MEXIT
.FOUND   ANOP
&ISHIFT  SETA  &SHIFT(&NDX)
&IBITS   SETA  &BITS(&NDX)
&CODE    SETA  1
&K       SETA  K'&BYTES
         AIF   (&IBITS-(&IBITS/4)*4 EQ 0).OK
         MNOTE 'BIT LENGTH SPECIFICATION INCONSISTENT WITH CONTROL'
         MEXIT
.OK      AIF   ('&BYTES' EQ '').USEDEFN
&LETTER  SETC  '&BYTES'(&K,1)
&S       SETC  '&BYTES'(1,&K-1)
&BYTESP  SETA  &S
         AIF   ('&LETTER' EQ 'B').BOTH
         AIF   ('&LETTER' EQ 'L').LEFT
&CODE    SETA  2
         AGO   .L
.LEFT    ANOP
&CODE    SETA  1
         AGO   .L
         AIF   (&ISHIFT EQ 0 OR &ISHIFT EQ 4).OK2
.ERR     MNOTE 'DATA NOT ALIGNED ON HEX OR BYTE BOUNDARY'
         MEXIT
.USEDEFN ANOP
&BYTESP  SETA  &IBITS/8
.BOTH    AIF   (&ISHIFT NE 0).ERR
&CODE    SETA  3
&T       SETA  &BYTESP*2-1
&S       SETC  '&T'
.OK2     AIF   (&ISHIFT EQ 0).L
&CODE    SETA  2
.L       ANOP
&B       SETB  1
         AIF   ('&SKIP$OR' EQ '').BACKUP
&K       SETA  K'&SKIP$OR
&B       SETB  ('&SKIP$OR'(1,1) EQ 'B')
&S       SETC  '&SKIP$OR'(&B+1,&K-&B)
.BACKUP  ANOP
&NRENTS  SETA  &NRENTS+1
         DC    AL.12(&LOGITEM-&DSECT),XL.4'A'
         DC    BL.1'&B',FL.7'&S',AL.4(&BYTESP),FL.4'&CODE'
.OUT     ANOP
         MEND
*
*
***********************************************************************
*
*
         MACRO
&NAME    ROUTINE  &LOGITEM,&RNAME
         GBLC  &ITEM(2000)
         GBLA  &SHIFT(2000),&ITEMNBR
         GBLC  &DSECT,&CSECT
         GBLA  &NRENTS
         LCLA  &ISHIFT,&NDX
.LOOP    ANOP
&NDX     SETA  &NDX+1
         AIF   ('&ITEM(&NDX)' EQ '&LOGITEM').FOUND
         AIF   (&NDX LT &ITEMNBR).LOOP
         MNOTE 'LOG ITEM NOT DEFINED'
         MEXIT
.FOUND   ANOP
&ISHIFT  SETA  &SHIFT(&NDX)
&NAME    DC    AL.12(&LOGITEM-&DSECT),XL.4'D'
         DC    AL.4(&ISHIFT),AL.12(&RNAME-&CSECT)
&NRENTS  SETA  &NRENTS+1
         MEND
*
*
***********************************************************************
*
*
         MACRO
&NAME    LABEL &LABEL1,&LABEL2,&LABEL3,&LABEL4,&LABEL5,&LABEL6,        C
               &LABEL7,&LABEL8
.*                            THIS MACRO ALLOWS UP TO ACHT LABELS TO
.*                                 BE SPECIFIED FOR A GIVEN LINE. THE
.*                                 LABELS SHOULD BE ENCLOSED IN QUOTA-
.*                                 TION MARKS. THE COLUMN AND LINE END
.*                                 CONTROLS WILL BE INSERTED BY THE
.*                                 MACRO. OMITTED OPERANDS MEAN NO
.*                                 LABEL REQUIRED FOR RESPECTIVE
.*                                 COLUMN. THIS MACRO WILL ALSO ALERT
.*                                 THE PROGRAMMER TO EXACTLY WHERE THE
.*                                 TABLE MUST BE BROKEN IF NECESSARY
.*                                 TO AVOID EXCEEDING THE MAXIMUM LIMIT
         GBLC &LABELS(2000)
         GBLC  &LBL(100)
         GBLA  &LBLCTR(100)
         GBLA  &LABELNR
         GBLA  &NRENTS,&LPTR
         LCLC  &MARGIN,&TACK
         LCLC  &TEXT
         LCLA  &OP,&K,&START,&NRCHAR,&REMAIN
&MARGIN  SETC  '*'
         AIF   ('&NAME' EQ '').LOOPOUT
&LPTR    SETA  &LPTR+1
&LBL(&LPTR) SETC '&NAME'
&LBLCTR(&LPTR) SETA &LABELNR+1
.LOOPOUT ANOP
&OP      SETA  &OP+1
&K       SETA  K'&SYSLIST(&OP)
         AIF (&K GE 2).NORM
&K       SETA  2
.NORM    ANOP
&START   SETA  2
         AIF (&OP LT N'&SYSLIST).NOTLAST
&MARGIN  SETC  '$'
.NOTLAST ANOP
&NRCHAR  SETA  8
&TACK    SETC  ''
.LOOPIN  ANOP
&REMAIN  SETA  &K-&START
         AIF (&REMAIN GE 8).MORE
&TACK    SETC  '&MARGIN'
&NRCHAR  SETA  &REMAIN
.MORE    ANOP
&TEXT    SETC  ''
         AIF (&REMAIN EQ 0).ENDTEXT
&TEXT    SETC  '&SYSLIST(&OP)'(&START,&NRCHAR)
.ENDTEXT ANOP
&LABELNR SETA  &LABELNR+1
&LABELS(&LABELNR) SETC '&TEXT'.'&TACK'
&START   SETA  &START+8
         AIF ('&TACK' EQ '').LOOPIN
         AIF ('&TACK' EQ '*').LOOPOUT
         MEND
         SPACE 2
         MACRO
         LSTART
.*                            THIS MACRO IS ISSUED WHEN THE LABEL AREA
.*                                 OF THE TABLE IS TO BEGIN.
         GBLC &LABELS(2000)
         GBLA  &LABELNR
         GBLC  &LBL(100)
         GBLA  &LBLCTR(100)
         LCLA  &NDX,&CTR
         LINEND
&CTR     SETA  1
.LOOP    ANOP
&NDX     SETA  &NDX+1
         AIF   (&LBLCTR(&CTR) NE &NDX).NOLBL
&LBL(&CTR) DC  C'&LABELS(&NDX)'
&CTR     SETA  &CTR+1
         AGO   .LOOPCTL
.NOLBL   ANOP
         DC    C'&LABELS(&NDX)'
.LOOPCTL AIF   (&NDX LT &LABELNR).LOOP
         MEND
*
*
***********************************************************************
*
*
         MACRO
         LINEND
.*                                 THIS MACRO IS USED ONLY BY THE LINE
.*                                 MACRO TO SET THE NUMBER OF ENTRIES
.*                                 ASSOCIATED WITH EACH LINE.
         GBLA  &NRENTS
         GBLC  &NRENTSX
         ORG   &NRENTSX
         DC    FL1'&NRENTS'
         ORG
&NRENTS  SETA  0
B&SYSNDX EQU   *
&NRENTSX SETC  'B&SYSNDX'
         MEND
*
*
***********************************************************************
*
*
         MACRO
&NAME    BIND  &Z1,&Z2,&Z3,&Z4
.*                                 THIS MACRO HELPS COLLOCATE BITS IN
.*                                 DIFFERENT AREAS OF THE LOG TO MAKE
.*                                 THEM ACCESSIBLE TO THE 'HEX' MACRO.
.*                                 EACH OPERAND HAS 3 SUBFIELDS:1 SPE-
.*                                 CIFIES BY LOGITEM NAME THE BYTE TO
.*                                 BE REFERENCED,2 GIVES THE NUMBER OF
.*                                 UNDESIRED BITS TO THE LEFT OF THE
.*                                 LOG ITEM'S FIRST BIT,3 GIVES THE LOG
.*                                ITEM'S LENGTH IN BITS. THE MACRO
.*                                CAUSES THE INFORMATION TO BE STORED &
.*                                CONTROL IS GIVEN TO THE 'BINDER' ROU-
.*                                TINE,WHICH STORES THE COLLOCATED
.*                                BITS RIGHT-JUSTIFIED IN THE FOUR-
.*                                BYTE WORK AREA INSERTED IN THE LOG,
.*                                BEGINNING AT 'LOGWORK1'
         GBLC      &DSECT
         LCLA  &OP
&NAME    BC    15,BINDER
.LOOP    ANOP
&OP      SETA  &OP+1
         DC    AL.16(&SYSLIST(&OP,1)-&DSECT)
         DC    FL1'&SYSLIST(&OP,2)'
         DC    FL1'&SYSLIST(&OP,3)'
         AIF   (&OP LT N'&SYSLIST).LOOP
         ORG   &NAME+4
         DC    AL.4(&OP),AL.12(&SYSLIST(1,1)-&DSECT)
         ORG
         MEND
         MACRO
&NAME    CKPARITY  &PAR1,&PAR2,&PAR3,&PAR4,&PAR5,&PAR6
.*                                THIS MACRO HELPS SET THE LOCATION
.*                                CONTROLS FOR A SPECIAL ROUTINE TO
.*                                CHECK PARITY ON ITEMS FROM THE LOG
.*                                ALREADY ASSEMBLED FOR PRINTING IN THE
.*                                PRINT BUFFER THAT HAS BEEN SET UP.
.*                                EACH OPERAND (UP TO SIX) HAS THREE
.*                                SUBFIELDS:1 GIVES THE DISPLACEMENT
.*                                FROM PRINT POSITION ZERO TO BEGIN
.*                                THE PARITY CHECK(I.E.,LOC. OF PARITY
.*                                BIT IN BUFFER);2 GIVES THE NUMBER OF
.*                                POSITIONS TO CHECK AGAINST THE PARITY
.*                                BIT (ASSUMING 1 SPACE BETWEEN PAR BIT
.*                                AND THE FIRST POSITION TO BE CHECKED)
.*                                3 GIVES THE NUMBER OF SEQUENTIAL PAR.
.*                                CHECKS OF THIS SORT TO MAKE,ASSUMING
.*                                TWO SPACES BETWEEN THE LAST POSITION
.*                                CHECKED AND NEXT PAR. BIT POSITION
         LCLA  &OP
&NAME    BC    15,PARPUT
         DC    X'0'
.LOOP    ANOP
&OP      SETA  &OP+1
         DC    FL1'&SYSLIST(&OP,1)'
         DC    FL1'&SYSLIST(&OP,2)'
         DC    FL1'&SYSLIST(&OP,3)'
         AIF   (&OP LT N'&SYSLIST).LOOP
         ORG   &NAME+4
         DC    FL1'&OP'
         ORG
         MEND
         GBLC  &DSECT,&CSECT
IFCEC155 CSECT
&CSECT   SETC  'IFCEC155'
&DSECT   SETC  'DSECT155'
DSECT155 DSECT
         DS    0F
         DSGEN (XKEY,16),(XSWS0,8),(XSWS8,1),(XSWS9,1),                *
               (XSWS10,1),(XSWS11,1),                                  *
               (XSWS12,1),(XSWS13,1),(XSWS14,1),(XSWS15,1)
         DSGEN (LOGWORK1,8),(LOGWORK2,6),(LOGWORK3,2),(LOGWRK3A,4),    *
               (LOGWRK3B,3),(LOGWRK3C,1),(LOGWORK4,8)
         DSGEN (XDATE,32)
         DSGEN (XTIME,32)
         DSGEN (XDUM2,8),(XSER,24)
         DSGEN (XCPUMOD,16),(XDUM3,16)
         DSGEN (XPGMID,64)
         DSGEN (XJOBID,64)
         DSGEN (XMCKPSW,64)
         DSGEN (SYSDAM,1),(PROCD,1),(SYSREC,1),(TIMDAM,1),(CLOCKD,1),  X
               (EXTDAM,1),(MDUM0,1),(AUTOCON,1),(WARNG,1),             X
               (DUM,5),(BACKUP1,1),(DELAY,1),(UNSTOR,1),               *
               (CORRST,1),(KEYERR,1),(DUMMY001,1),(EMWP,1),            *
               (SYSMSK,1),(PGMSK,1),(IAVLD,1),(FASTVLD,1),             X
               (RCVLD,1),(MDUM3,1),(FLPVLD,1),(GPRVLD,1),              X
               (CTLVLD,1),(LOGVLD,1),(STVLD,1)
         DSGEN (RESERVDA,16),(EXTDLOG,16)
         DSGEN (RESRVDB,64)
         DSGEN (MDUM4,8),(FAILSTA,24)
         DSGEN (RGNCODE,32)
         DSGEN (DUMMY1,32)
         DSGEN (MCAR,32)
         DSGEN (MCDR1,32)
         DSGEN (MCDR2,32)
         DSGEN (MANTLTH1,32)
         DSGEN (MANTLTH2,32)
         DSGEN (MCRR1,32)
         DSGEN (MCRR2,32)
         DSGEN (ICM90,32)
         DSGEN (STATUS,32)
         DSGEN (FDUM1,32)
         DSGEN (FDUM2,32)
         DSGEN (FDUM3,32)
         DSGEN (FDUM4,32)
         DSGEN (FDUM5,32)
         DSGEN (FDUM6,32)
         DSGEN (FDUM7,32)
         DSGEN (FDUM8,32)
         DSGEN (FDUM9,32)
         DSGEN (FDUM10,32)
         DSGEN (FDUM11,32)
         DSGEN (FDUM12,32)
         DSGEN (FDUM13,32)
         DSGEN (FDUM14,32)
FLOATPTS DSGEN (FP0,32)
         DSGEN (FP1,32)
         DSGEN (FP2,32)
         DSGEN (FP3,32)
         DSGEN (FP4,32)
         DSGEN (FP5,32)
         DSGEN (FP6,32)
         DSGEN (FP7,32)
GENPURPR DSGEN (GPR0,32)
         DSGEN (GPR1,32)
         DSGEN (GPR2,32)
         DSGEN (GPR3,32)
         DSGEN (GPR4,32)
         DSGEN (GPR5,32)
         DSGEN (GPR6,32)
         DSGEN (GPR7,32)
         DSGEN (GPR8,32)
         DSGEN (GPR9,32)
         DSGEN (GP10,32)
         DSGEN (GP11,32)
         DSGEN (GP12,32)
         DSGEN (GP13,32)
         DSGEN (GP14,32)
         DSGEN (GP15,32)
         DSGEN (CTR0,32)
         DSGEN (CTR1,32)
         DSGEN (CTR2,32)
         DSGEN (CTR3,32)
         DSGEN (CTR4,32)
         DSGEN (CTR5,32)
         DSGEN (CTR6,32)
         DSGEN (CTR7,32)
         DSGEN (CTR8,32)
         DSGEN (CTR9,32)
         DSGEN (CR10,32)
         DSGEN (CR11,32)
         DSGEN (CR12,32)
         DSGEN (CR13,32)
         DSGEN (CR14,32)
         DSGEN (CR15,32)
         DSGEN (XBUS0,8),(XBUS1,8),(XBUS2,8),(XBUS3,8)
         DSGEN (YBUS0,8),(YBUS1,8),(YBUS2,8),(YBUS3,8)
         DSGEN (ZBUS0,8),(ZBUS1,8),(ZBUS2,8),(ZBUS3,8)
         DSGEN (UBUS,8),(VBUS,8),(WBUS,8),(FILREG,8)
         DSGEN (STLNK,1),(RABUSRP,1),(RABUSBI,1),(RABUS1P,1),          *
               (RABUS1,4),(RABUS3,8),(BFRBUSY,1),(RBAR1RP,1),          *
               (RBAR1BI,1),(RBAR11P,1),(RBAR11,4),(RBAR13,8)
         DSGEN (LSSSTS,2),(CPURLAR,6),(WRCPULS,1),(DUMMY000,1),        *
               (CPUWLAR,6),(DUMMY002,1),(DUMMY003,1),(IORLAR,6),       *
               (WRIOLS,1),(DUMMY004,1),(IOWLAR,6)
         DSGEN (EXTSW0,8),(EXTSW1,8),(EXTSW2,8),(EXTSW3,8)
         DSGEN (SPARE030,8),(SPARE031,8),(SPARE032,8),(SPARE033,8)
         DSGEN (AREG0,8),(AREG1,8),(AREG2,8),(AREG3,8)
         DSGEN (BREG0,8),(BREG1,8),(BREG2,8),(BREG3,8)
         DSGEN (CREG0,8),(CREG1,8),(CREG2,8),(CREG3,8)
         DSGEN (DREG0,8),(DREG1,8),(DREG2,8),(DREG3,8)
         DSGEN (IOLSD0,8),(IOLSD1,8),(IOLSD2,8),(IOLSD3,8)
         DSGEN (CPULS0,8),(CPULS1,8),(CPULS2,8),(CPULS3,8)
         DSGEN (IOSAR0,8),(IOSAR1,8),(IOSAR2,8),(IOSAR3,8)
         DSGEN (CPUSR0,8),(CPUSR1,8),(CPUSR2,8),(CPUSR3,8)
         DSGEN (SPARE034,8),(IAR1,8),(IAR2,8),(IAR3,8)
         DSGEN (PSWSM,8),(PSWKEY,8),(PSWESM,8),(SPARE035,8)
         DSGEN (RBAR2IO,1),(RBAR2RP,1),(RBAR2BI,1),(RBAR21P,1),        *
               (RBAR21,4),(RBAR23,8),(RBAR3IO,1),(RBAR3RP,1),          *
               (RBAR3BI,1),(RBAR31P,1),(RBAR31,4),(RBAR33,8)
         DSGEN (BS0,4),(BS4P,1),(BS4,3),(ABCTRP,1),                    *
               (ABCTR,3),(CBCTRP,1),(CBCTR,3),(IFTHRS,1),              *
               (IFRES,1),(IFINV,1),(IFPRTC,1),(IFIC,1),                *
               (IFEXS,1),(IFILC,2),(ALUFNR,4),                         *
               (QBIT,1),(CCST,1),(CSA,1),(CSB,1)
         DSGEN (L12CTR,8),(L2SS,1),(CC,2),                             *
               (FNBR,2),(ALWTRP,1),(DUMMY006,1),(NSSMD,1),             *
               (R12CTR,8),(INABRR,3),(INBBRR,4),(HYRST,1)
         DSGEN (SRADAD1,7),(HRDCHK,1),(SERADM,1),(INTDL,1),            *
               (WAITFR,1),(ENGHEAD,1),(INPERR,1),(CLKERR,1),           *
               (ABCOMPS,1),(LOGCMPS,1),(DIAGCTR,8),(SPARE036,8)
         DSGEN (DUMMY007,1),(DUMMY008,1),(INDDISP,1),(CPURA1P,1),      *
               (CPURA1,4),(CPURA3,8),(GPSTL1,4),(GPSTL2P,1),           *
               (GPSTL2,3),(S19,1),(EXTST,1),(ANYEXC,1),                *
               (ICPLUS4,1),(IC1B29,1),(IB0FULL,3)
         DSGEN (SPARE037,8),(SPARE038,8),(SPARE039,8),(SPARE040,8)
         DSGEN (XBUSE,4),(YBUSE,4),(CARRYE,8),(HSUME,4),(ZBUSE,4),     *
               (LSREGE,4),(CISARE,4)
         DSGEN (GPSTE,2),(LCTRE,1),(RCTRE,1),                          *
               (DUMMY009,1),(DUMMY010,1),(ABE,1),(CBE,1),              *
               (PSW0E,1),(PSW1E,1),(PSW2E,1),(PSW3E,1),                *
               (WBUSE,1),(ABCTRE,1),(CBCTRE,1),(MEME,1),               *
               (EXTSWE,4),(EESW0E,1),(HOFFE,1),(ABDLYE,1),(EESW3E,1),  *
               (CLSARE,1),(CH02E,1),(CH35E,1),(MVRHSE,1),              *
               (DUMMY013,1),(MVRFNE,1),(ICE,2)
         DSGEN (ERLYRE,3),(RSYNCE,1),                                  *
               (LATER0E,1),(LATER1E,1),(LATER2E,1),(LATER3E,1),        *
               (MISDECE,1),(SSDECE,1),(CNTDECE,1),(BBRE,1),            *
               (RADRE,1),(ZDECE,1),(CRUCWLS,1),(TMKE,1),               *
               (SPARE041,8),(SPARE042,8)
         DSGEN (CP1R0,4),(CP1R1P,1),(CP1R1,3),(CP2R0P,1),              *
               (CP2NC,1),(CP2SE,1),(CP2DE,1),(CP2IE,1),                *
               (CP2R1P,1),(CP2HC,1),(CP2AC,1),(CP2R3,1),               *
               (ERRCTR,4),(IGNORE1,1),(SERDIS,1),(ENDATA,1),           *
               (SDC,1),(DUMMY015,1),(HARDST,1),(ADRCPST,1),            *
               (DUMMY016,1),(DUMMY017,1),(DUMMY018,1),(DUMMY019,1)
         DSGEN (ABI1,1),(NXA1,3),(NXB1,4),(BRC11,1),                   *
               (ABR1,5),(BBR01,2),(BBR21,2),(IOPR,2),                  *
               (IOSSB,3),(XYALU01,1),(XYALU21,2),(UX1,3),              *
               (VY1,3)
         DSGEN (LRSP,1),(LSWR,4),(LSRD,3),(MISC21,2),                  *
               (CNT1,4),(Z01,2),(Z21,1),(ZW1,4),                       *
               (XYSH1,3),(EMIT1,5),(EMIT2,3)
         DSGEN (SPARE043,8),(SPARE044,8),(SPARE045,8),(SPARE046,8)
         DSGEN (SPARE047,8),(SPARE048,8),(SPARE049,8),(SPARE050,8)
         DSGEN (C0IOSF,2),(C0SVCO,1),(C0ADRO,1),                       *
               (C0HLDO,1),(DUMMY020,1),(C0CMDO,1),(C0SUPO,1),          *
               (C0IOSC,4),(C0IOSD,4),(C0IOSA,4),(C0IOSB,4),            *
               (C0IOSE,2),(C0OPLO,1),(DUMMY021,1),                     *
               (C0DATAO,1),(DUMMY022,1),(DUMMY023,1),(DUMMY024,1)
         DSGEN (DUMMY025,1),(DUMMY026,1),(C0RAR2,1),(C0RAR0P,1),       *
               (C0RAR1,4),(C0RAR3,8),(DUMMY027,1),(DUMMY028,1),        *
               (DUMMY029,1),(DUMMY030,1),(C0SRVI,1),(C0ADRI,1),        *
               (C0SELI,1),(DUMMY031,1),(C0STAI,1),(C0REQI,1),          *
               (C0OPLI,1),(DUMMY032,1),(C0DISCI,1),(DUMMY033,1),       *
               (DUMMY034,1),(C0MRKI,1)
         DSGEN (C0DABP,1),(C0DAB,4),(C0RP,1),(C0IOI,1),                *
               (C0IFCK,1),(DUMMY035,1),(C0CV,1),(DUMMY036,1),          *
               (C0CB5,1),(C0CB6,1),(C0CB7,1),(C0REQIT,1),              *
               (C0ERRIT,1),(DUMMY037,1),(C0INT,1),(C0ONSYS,1),         *
               (DUMMY038,1),(C0LWLUP,1),(C0LWLBU,1),(DUMMY039,1),      *
               (DUMMY040,1),(SPARE051,8)
         DSGEN (SPARE052,8),(SPARE053,8),(SPARE054,8),(SPARE055,8)
         DSGEN (C1IOSF,2),(C1SVCO,1),(C1ADRO,1),                       *
               (C1HLDO,1),(DUMMY041,1),(C1CMDO,1),(C1SUPO,1),          *
               (C1IOSC,4),(C1IOSD,4),(C1IOSA,4),(C1IOSB,4),            *
               (C1IOSE,2),(C1OPLO,1),(DUMMY042,1),                     *
               (C1DATAO,1),(DUMMY043,1),(DUMMY044,1),(DUMMY045,1)
         DSGEN (DUMMY046,1),(DUMMY047,1),(C1RAR2,1),(C1RAR0P,1),       *
               (C1RAR1,4),(C1RAR3,8),(DUMMY048,1),(DUMMY049,1),        *
               (DUMMY050,1),(DUMMY051,1),(C1SRVI,1),(C1ADRI,1),        *
               (C1SELI,1),(DUMMY052,1),(C1STAI,1),(C1REQI,1),          *
               (C1OPLI,1),(DUMMY053,1),(C1DISCI,1),(DUMMY054,1),       *
               (DUMMY055,1),(C1MRKI,1)
         DSGEN (C1DABP,1),(C1DAB,4),(C1RP,1),(C1IOI,1),                *
               (C1IFCK,1),(DUMMY056,1),(C1CV,1),(DUMMY057,1),          *
               (C1CB5,1),(C1CB6,1),(C1CB7,1),(C1REQIT,1),              *
               (C1ERRIT,1),(DUMMY058,1),(C1INT,1),(C1ONSYS,1),         *
               (DUMMY059,1),(C1LWLUP,1),(C1LWLBU,1),(DUMMY060,1),      *
               (DUMMY061,1),(SPARE056,8)
         DSGEN (C1SCTR,4),(C1HCTR0,5),(C1SUPC,3),(C1LWC0,5),           *
               (C1ERB,5),(DUMMY062,1),(DUMMY063,1),(SPARE057,8)
         DSGEN (C2IOSF,2),(C2SVCO,1),(C2ADRO,1),                       *
               (C2HLDO,1),(DUMMY064,1),(C2CMDO,1),(C2SUPO,1),          *
               (C2IOSC,4),(C2IOSD,4),(C2IOSA,4),(C2IOSB,4),            *
               (C2IOSE,2),(C2OPLO,1),(DUMMY065,1),                     *
               (C2DATAO,1),(DUMMY066,1),(DUMMY067,1),(DUMMY068,1)
         DSGEN (DUMMY069,1),(DUMMY070,1),(C2RAR2,1),(C2RAR0P,1),       *
               (C2RAR1,4),(C2RAR3,8),(DUMMY071,1),(DUMMY072,1),        *
               (DUMMY073,1),(DUMMY074,1),(C2SRVI,1),(C2ADRI,1),        *
               (C2SELI,1),(DUMMY075,1),(C2STAI,1),(C2REQI,1),          *
               (C2OPLI,1),(DUMMY076,1),(C2DISCI,1),(DUMMY077,1),       *
               (DUMMY078,1),(C2MRKI,1)
         DSGEN (C2DABP,1),(C2DAB,4),(C2RP,1),(C2IOI,1),                *
               (C2IFCK,1),(DUMMY079,1),(C2CV,1),(DUMMY080,1),          *
               (C2CB5,1),(C2CB6,1),(C2CB7,1),(C2REQIT,1),              *
               (C2ERRIT,1),(DUMMY081,1),(C2INT,1),(C2ONSYS,1),         *
               (DUMMY082,1),(C2LWLUP,1),(C2LWLBU,1),(DUMMY083,1),      *
               (DUMMY084,1),(SPARE058,8)
         DSGEN (C2SCTR,4),(C2HCTR0,5),(C2SUPC,3),(C2LWC0,5),           *
               (C2ERB,5),(DUMMY085,1),(DUMMY086,1),(SPARE059,8)
         DSGEN (C3IOSF,2),(C3SVCO,1),(C3ADRO,1),                       *
               (C3HLDO,1),(DUMMY087,1),(C3CMDO,1),(C3SUPO,1),          *
               (C3IOSC,4),(C3IOSD,4),(C3IOSA,4),(C3IOSB,4),            *