       TITLE   'IFCEB165 MODEL 165 CPU EDIT TABLE 3'             S21021
*  DSGEN MACRO     DSGEN MACRO     DSGEN MACRO     DSGEN MACRO        *
         SPACE 2
         MACRO
&NAME    DSGEN &X1,&X2,&X3,&X4,&X5,&X6,&X7,&X8,&X9,&X10,&X11,&X12,&X13,X
               &X14,&X15,&X16,&X17,&X18,&X19,&X20,&X21,&X22,&X23,&X24, X
               &X25,&X26,&X27,&X28,&X29,&X30,&X31,&X32
.*                            THIS MACRO GENERATES ONE DSECT WORD
.*                                 FORMATTED FOR THE SUBJECT LOG RECORD
.*                                 EACH OPERAND HAS TWO SUB LISTS. THE
.*                                 FIRST IS THE NAME OF THE LOG ITEM
.*                                 WHILE THE SECOND IS THE # OF BITS TO
.*                                 ALLOCATE FOR THIS ITEM. ITEMS MUST
.*                                 BE DEFINED CONTIGUOUSLY WITHOUT GAPS
.*                                 UNUSED BIT GROUPS MUST BE GIVEN
.*                                 DUMMY NAMES. THE NAMES PROVIDED FOR
.*                                 THE LOG ITEMS MAY THEN BE USED IN
.*                                 THE CONVERSION MACRO INSTRUCTIONS.
         GBLC &ITEM(1500)
         GBLA &ITEMNBR,&BITS(1500),&SHIFT(1500)
         LCLC  &SYMBOL
         LCLA  &OP,&COUNT,&BYTE
.LOOP    ANOP
&OP      SETA  &OP+1
&ITEMNBR SETA  &ITEMNBR+1
&SYMBOL  SETC  '&SYSLIST(&OP,1)'
         AIF   ('&SYSLIST(&OP,2)' NE '').OK1
         MNOTE *,'NULL BIT COUNT FIELD'
         MEXIT
.OK1     ANOP
         AIF   ('&SYMBOL' NE '').OK
         MNOTE 'LOG ITEM SYMBOL NOT PROVIDED'
         AGO   .CNT
.OK      ANOP
         AIF   ('&SYMBOL'(1,1) EQ '''').CNT                *TEMP*
&SYMBOL  EQU   *+&BYTE
&ITEM(&ITEMNBR)  SETC '&SYSLIST(&OP,1)'
&BITS(&ITEMNBR) SETA &SYSLIST(&OP,2)
&SHIFT(&ITEMNBR) SETA &COUNT-&BYTE*8
.CNT     ANOP
&COUNT   SETA  &COUNT+&SYSLIST(&OP,2)
&BYTE    SETA  &COUNT/8
         AIF (&OP LT N'&SYSLIST).LOOP
         AIF   (&COUNT NE 32).NOT32
&NAME    DS    4C
         MEXIT
.NOT32   AIF   (&COUNT NE 64).ERR
&NAME    DS    8C
         MEXIT
.ERR     MNOTE '**BIT COUNT FIELDS DO NOT TOTAL 32 OR 64**'
         MEND
         EJECT
*  LINE MACRO     LINE MACRO     LINE MACRO     LINE MACRO            *
         SPACE 2
         MACRO
&NAME    LINE  &DATA,&LABEL,&SKIP=
.*                            THIS MACRO ESTABLISHES THE MARGINS OR
.*                                 COLUMN SETTINGS FOR EACH LINE. IT
.*                                 GENERATES NECESSARY CARRIAGE CONTROL
.*                                 ENTRIES. LASTLY IT DETERMINES THE
.*                                 NUMBER OF ENTRIES ASSOCIATED WITH
.*                                 THE PREVIOUS LINE AND STORES THAT #
.*                                 INTO THE APPROPRIATE BYTE.
.*                            &DATA(1) - CHARACTER POSITION TO BEGIN
.*                                 DATA.
.*                            &DATA(2) - # OF SPACES BETWEEN SUCCESSIVE
.*                                 DATA COLUMN STARTING CHARACTERS.
.*                            &LABEL(1) - CHAR. POS. TO BEGIN LABELS.
.*                            &LABEL(2) - # SPACES BETWEEN LINE'S LABEL
.*                                 STARTING CHARACTERS.
.*                            &SKIP= - # OF LINES TO ADVANCE CARRIAGE
.*                                 TO BEGIN NEXT PRINTED LINE.
.*                            NEW ENTRIES ARE GENERATED ONLY WHEN
.*                                 NECESSARY. OMISSION OF ITEMS MEANS
.*                                 THEY HAVE NOT CHANGED SINCE PREVIOUS
.*                                 SETTINGS. A LINE MACRO IS REQUIRED
.*                                 FOR EACH PRINTED LINE. IF NO SETTING
.*                                 CHANGES ARE REQUIRED ALL OPERANDS
.*                                 ARE OMITTED IN WHICH CASE ONLY THE
.*                                 # OF ENTRIES FOR THE PREVIOUS LINE
.*                                 IS COMPUTED. THIS MACRO MUST BE THE
.*                                 FIRST MACRO INSTRUCTION ISSUED FOR
.*                                 THE SUBJECT LINE
         GBLA  &DB,&DT,&LB,&LT,&NRENTS
         GBLA  &LASTCC,&INITIAL
         GBLC  &NRENTSX
         GBLC  &CARRCON
         GBLB  &TEST
         LCLA  &S
&NAME    DS    0C
         AIF   (&INITIAL EQ 0).FIRSTLN
         LINEND
         AGO   .NTFIRST
.FIRSTLN ANOP
&NRENTSX SETC  'N&SYSNDX'
&INITIAL SETA  1
N&SYSNDX EQU   *
.NTFIRST ANOP
         DC    AL1(0)
         AIF   ('&DATA(1)' EQ '').CKDTABS
         AIF   (&DATA(1) EQ &DB).CKDTABS
&DB      SETA  &DATA(1)
         AGO   .AA
.CKDTABS AIF   ('&DATA(2)' EQ '').NCDATA
         AIF   (&DATA(2) EQ &DT).NCDATA
         AGO   .CC
.AA      AIF   ('&DATA(2)' EQ '').BB
         AIF   (&DATA(2) EQ &DT).BB
.CC      ANOP
&DT      SETA  &DATA(2)
.BB      DC    XL2'FFFE'
         DC    FL1'&DB'
         DC    FL1'&DT'
&NRENTS  SETA  &NRENTS+1
.NCDATA  ANOP
         AIF   ('&LABEL(1)' EQ '').CKLTABS
         AIF   (&LABEL(1) EQ &LB).CKLTABS
&LB      SETA  &LABEL(1)
         AGO   .AAA
.CKLTABS AIF   ('&LABEL(2)' EQ '').NCLABEL
         AIF   (&LABEL(2) EQ &LT).NCLABEL
         AGO   .CCC
.AAA     AIF   ('&LABEL(2)' EQ '').BBB
         AIF   (&LABEL(2) EQ &LT).BBB
.CCC     ANOP
&LT      SETA  &LABEL(2)
.BBB     DC    XL2'FFFF'
         DC    FL1'&LB'
         DC    FL1'&LT'
&NRENTS  SETA  &NRENTS+1
.NCLABEL ANOP
         AIF   ('&SKIP' NE '').CONT
         AIF   (&TEST EQ 0).NOCHANG
&S       SETA  &LASTCC
         AGO   .DEFAULT
.CONT    ANOP
         AIF   (&TEST EQ 0).AB
&S       SETA  &SKIP
.DEFAULT ANOP
         ORG   &CARRCON+3
         DC    AL.3(0),AL.2(&S),AL.3(1)
         ORG
&LASTCC  SETA  &S
&TEST    SETB  0
         AGO   .DD
.AB      AIF   (&SKIP EQ &LASTCC).NOCHANG
A&SYSNDX DC    XL2'FFFB'
         DC    AL.3(0),AL.2(&SKIP),AL.3(1)
         DC    FL1'9'
&LASTCC  SETA  &SKIP
&TEST    SETB  1
&CARRCON SETC  'A&SYSNDX'
&NRENTS  SETA  &NRENTS+1
.DD      ANOP
.NOCHANG ANOP
         MEND
         EJECT
*  BIN MACRO     BIN MACRO     BIN MACRO     BIN MACRO     BIN MACRO  *
         SPACE 2
         MACRO
         BIN   &LOGITEM,&SKIP$OR
.*                                 &LOGITEM - NAME OF ITEM IN LOG
.*                                      RECORD DSECT
.*                                 &SKIP$OR - NBR OF SPACES TO SKIP ON
.*                                 MULTIPLE PRINT OR NBR OF SPACES
.*                                      TO BACK UP FROM COLUMN FOR
.*                                      START OF PRINTING. THE LETTER
.*                                      B PRECEEDS THE NUMBER (B5) IF
.*                                      THE LATTER IS DESIRED. OMISSION
.*                                      OF THIS OPERAND FORCES OPTION 2
.*                                      WITH BACKUP SPACING EQUAL TO
.*                                 THE NUMBER OF BITS IN THE ITEM
.*                                 DEFINITION (VIA MACRO 'DSGEN').
.*                            A LIMIT OF 15 BITS IS IMPOSED FOR THE
.*                                 TOTAL NUMBER OF BITS TO PRINT.
         GBLC &ITEM(1500)
         GBLA &ITEMNBR,&BITS(1500),&SHIFT(1500),&NRENTS
         GBLC  &DSECT
         LCLB  &B
         LCLA  &IBITS,&NDX,&ISHIFT,&K
         LCLA  &TEMP,&T
         LCLC  &S
.LOOP    ANOP
&NDX     SETA  &NDX+1
         AIF   ('&ITEM(&NDX)' EQ '&LOGITEM').FOUND
         AIF   (&NDX LT &ITEMNBR).LOOP
         MNOTE *,'YOU BLEW IT'
         ROUTINE DUM,SKIPPER
         MEXIT
.FOUND   ANOP
&ISHIFT  SETA  &SHIFT(&NDX)
&IBITS   SETA  &BITS(&NDX)
&T       SETA  &IBITS-1
&B       SETB  0
         AIF   ('&SKIP$OR' EQ '').BACKUP
&K       SETA  K'&SKIP$OR
&B       SETB  ('&SKIP$OR'(1,1) EQ 'B')
&S       SETC  '&SKIP$OR'(&B+1,&K-&B)
&T       SETA  &S
.BACKUP  ANOP
&NRENTS  SETA  &NRENTS+1
&TEMP    SETA  &ISHIFT
A&SYSNDX DC    AL.12(&LOGITEM-&DSECT),XL.4'&TEMP'
         AIF (&IBITS EQ 1 AND &B EQ 0).OUT
         ORG   A&SYSNDX
&B       SETB  1
         DC    AL.12(&LOGITEM-&DSECT),XL.4'C'
         DC    BL.1'&B',AL.7(&T),AL.4(&IBITS),FL.4'&ISHIFT'
.OUT     ANOP
         MEND
         EJECT
*  HEX MACRO     HEX MACRO     HEX MACRO    HEXN MACRO     HEX MACRO  *
         SPACE 2
         MACRO
         HEX   &LOGITEM,&SKIP$OR,&BYTES
.*                            THIS MACRO FACILITATES GENERATION OF THE
.*                                 TABLE ENTRIES SPECIFYING HEX TYPE
.*                                 CONVERSIONS.
.*                            &LOGITEM - NAME OF DATA ITEM TO BE
.*                                 CONVERTED
.*                            &SKIP$OR - NUMBER OF SPACES TO SKIP ON
.*                                 MULTIPLE PRINT OR NBR OF SPACES TO
.*                                 BACK UP FROM COLUMN FOR START OF
.*                                 PRINTING. THE LETTER B PRECEEDS THE
.*                                 NUMBER (B8) IF THE LATTER OPTION IS
.*                                 DESIRED. OMISSION OF THIS OPERAND
.*                                 FORCES OPTION 2 WITH BACKUP SPACING
.*                                 EQUAL TO THE NUMBER OF BYTES SPECI-
.*                                 FIED BY THE NEXT OPERAND (TWICE THIS
.*                                 NUMBER IF SUFFIX IS EXPLICITLY OR
.*                                 IMPLICITLY B).
.*                            &BYTES - NUMBER OF TOTAL INPUT BYTES TO
.*                                 PROCESS. THIS NUMBER IS SUFFIXED
.*                                 WITH AN L,R, OR B TO STIPULATE
.*                                 PRINTING OF THE LEFT HALF, RIGHT
.*                                 HALF, OR BOTH HALVES OF THE BYTE
.*                                 RESPECTIVELY. OMISSION OF THIS
.*                                 OPERAND DEFAULTS TO B WITH THE NUM-
.*                                 BER OF BYTES EQUAL TO THE ITEM LNGTH
.*                            A NEW ENTRY IS GENERATED ONLY WHEN NECES-
.*                                 SARY. THIS MACRO MUST BE THE FIRST
.*                                 MACRO INSTRUCTION ISSUED FOR THE
.*                                 SUBJECT LINE(S).
         GBLC &ITEM(1500),&DSECT
         GBLA &ITEMNBR,&BITS(1500),&SHIFT(1500),&NRENTS
         LCLB  &B
         LCLA  &IBITS,&NDX,&ISHIFT,&K,&T,&CODE,&BYTESP
         LCLC  &S,&LETTER
.LOOP    ANOP
&NDX     SETA  &NDX+1
         AIF   ('&ITEM(&NDX)' EQ '&LOGITEM').FOUND
         AIF   (&NDX LT &ITEMNBR).LOOP
         MNOTE *,'LOG ITEM NOT DEFINED'
         MEXIT
.FOUND   ANOP
&ISHIFT  SETA  &SHIFT(&NDX)
&IBITS   SETA  &BITS(&NDX)
&CODE    SETA  1
&K       SETA  K'&BYTES
         AIF   (&IBITS-(&IBITS/4)*4 EQ 0).OK
         MNOTE *,'BIT LENGTH SPECIFICATION INCONSISTENT WITH CONTROL'
         MEXIT
.OK      AIF   ('&BYTES' EQ '').USEDEFN
&LETTER  SETC  '&BYTES'(&K,1)
&S       SETC  '&BYTES'(1,&K-1)
&BYTESP  SETA  &S
         AIF   ('&LETTER' EQ 'B').BOTH
         AIF   (&ISHIFT EQ 0 OR &ISHIFT EQ 4).OK2
.ERR     MNOTE *,'DATA NOT ALLIGNED ON HEX OR BYTE BOUNDARY'
         MEXIT
.USEDEFN ANOP
&BYTESP  SETA  &IBITS/8
.BOTH    AIF   (&ISHIFT NE 0).ERR
&CODE    SETA  3
&T       SETA  &BYTESP*2-1
&S       SETC  '&T'
.OK2     AIF   (&ISHIFT EQ 0).L
&CODE    SETA  2
.L       ANOP
&B       SETB  1
         AIF   ('&SKIP$OR' EQ '').BACKUP
&K       SETA  K'&SKIP$OR
&B       SETB  ('&SKIP$OR'(1,1) EQ 'B')
&S       SETC  '&SKIP$OR'(&B+1,&K-&B)
.BACKUP  ANOP
&NRENTS  SETA  &NRENTS+1
         DC    AL.12(&LOGITEM-&DSECT),XL.4'A'
         DC    BL.1'&B',FL.7'&S',AL.4(&BYTESP),FL.4'&CODE'
.OUT     ANOP
         MEND
         SPACE 2
*  ROUTINE MACRO     ROUTINE MACRO     ROUTINE MACRO     ROUTINE MACRO*
         SPACE 2
         MACRO
&NAME    ROUTINE &LOGITEM,&RNAME
         GBLC  &DSECT,&CSECT
         GBLC  &ITEM(1500)
         GBLA  &SHIFT(1500),&ITEMNBR
         GBLA  &NRENTS
         LCLA  &ISHIFT,&NDX
.LOOP    ANOP
&NDX     SETA  &NDX+1
         AIF   ('&ITEM(&NDX)' EQ '&LOGITEM').FOUND
         AIF   (&NDX LT &ITEMNBR).LOOP
         MNOTE *,'LOG ITEM NOT DEFINED'
         MEXIT
.FOUND   ANOP
&ISHIFT  SETA  &SHIFT(&NDX)
&NAME    DC    AL.12(&LOGITEM-&DSECT),XL.4'D'
         DC    AL.4(&ISHIFT),AL.12(&RNAME-&CSECT)
&NRENTS  SETA  &NRENTS+1
         MEND
         EJECT
*  LABEL MACRO     LABEL MACRO     LABEL MACRO     LABEL MACRO        *
         SPACE 2
         MACRO
&NAME    LABEL &LABEL1,&LABEL2,&LABEL3,&LABEL4,&LABEL5,&LABEL6,        C
               &LABEL7,&LABEL8
.*                            THIS MACRO ALLOWS UP TO ACHT LABELS TO
.*                                 BE SPECIFIED FOR A GIVEN LINE. THE
.*                                 LABELS SHOULD BE ENCLOSED IN QUOTA-
.*                                 TION MARKS. THE COLUMN AND LINE END
.*                                 CONTROLS WILL BE INSERTED BY THE
.*                                 MACRO. OMITTED OPERANDS MEAN NO
.*                                 LABEL REQUIRED FOR RESPECTIVE
.*                                 COLUMN. THIS MACRO WILL ALSO ALERT
.*                                 THE PROGRAMMER TO EXACTLY WHERE THE
.*                                 TABLE MUST BE BROKEN IF NECESSARY
.*                                 TO AVOID EXCEEDING THE MAXIMUM LIMIT
         GBLC &LABELS(2000)
         GBLC  &LBL(100)
         GBLA  &LBLCTR(100)
         GBLA  &LABELNR
         GBLA  &NRENTS,&LPTR
         LCLC  &MARGIN,&TACK
         LCLC  &TEXT
         LCLA  &OP,&K,&START,&NRCHAR,&REMAIN
&MARGIN  SETC  '*'
         AIF   ('&NAME' EQ '').LOOPOUT
&LPTR    SETA  &LPTR+1
&LBL(&LPTR) SETC '&NAME'
&LBLCTR(&LPTR) SETA &LABELNR+1
.LOOPOUT ANOP
&OP      SETA  &OP+1
&K       SETA  K'&SYSLIST(&OP)
         AIF (&K GE 2).NORM
&K       SETA  2
.NORM    ANOP
&START   SETA  2
         AIF (&OP LT N'&SYSLIST).NOTLAST
&MARGIN  SETC  '$'
.NOTLAST ANOP
&NRCHAR  SETA  8
&TACK    SETC  ''
.LOOPIN  ANOP
&REMAIN  SETA  &K-&START
         AIF (&REMAIN GE 8).MORE
&TACK    SETC  '&MARGIN'
&NRCHAR  SETA  &REMAIN
.MORE    ANOP
&TEXT    SETC  ''
         AIF (&REMAIN EQ 0).ENDTEXT
&TEXT    SETC  '&SYSLIST(&OP)'(&START,&NRCHAR)
.ENDTEXT ANOP
&LABELNR SETA  &LABELNR+1
&LABELS(&LABELNR) SETC '&TEXT'.'&TACK'
&START   SETA  &START+8
         AIF ('&TACK' EQ '').LOOPIN
         AIF ('&TACK' EQ '*').LOOPOUT
         MEND
         SPACE 2
         MACRO
         LSTART
.*                            THIS MACRO IS ISSUED WHEN THE LABEL AREA
.*                                 OF THE TABLE IS TO BEGIN.
         GBLC &LABELS(2000)
         GBLA  &LABELNR
         GBLC  &LBL(100)
         GBLA  &LBLCTR(100)
         LCLA  &NDX,&CTR
         LINEND
&CTR     SETA  1
.LOOP    ANOP
&NDX     SETA  &NDX+1
         AIF   (&LBLCTR(&CTR) NE &NDX).NOLBL
&LBL(&CTR) DC  C'&LABELS(&NDX)'
&CTR     SETA  &CTR+1
         AGO   .LOOPCTL
.NOLBL   ANOP
         DC    C'&LABELS(&NDX)'
.LOOPCTL AIF   (&NDX LT &LABELNR).LOOP
         MEND
         SPACE 2
         MACRO
         LINEND
.*                            THIS MACRO IS USED ONLY BY THE LINE
.*                                 MACRO TO SET THE NUMBER OF ENTRIES
.*                                 ASSOCIATED WITH EACH LINE.
         GBLA  &NRENTS
         GBLC &NRENTSX
         ORG   &NRENTSX
         DC    FL1'&NRENTS'
         ORG
&NRENTS  SETA  0
B&SYSNDX EQU   *
&NRENTSX SETC  'B&SYSNDX'
         MEND
         EJECT
         GBLC  &DSECT,&CSECT
&DSECT   SETC  'INDEPEND'
&CSECT   SETC  'IFCEB165'                                        S21021
IFCEB165 CSECT                                                   S21021
         USING *,R9
INDEPEND DSECT
         DS    0F
         DSGEN (XKEY,16),(XSWS8,9),(XSWS9,1),(XSWS10,1),(XSWS11,1),    C
               (XSWS12,1),(XSWS13,1),(XSWS14,1),(XSWS15,1)
         DSGEN (XDUM1,32)
         DSGEN (XDATE,32)
         DSGEN (XTIME,32)
         DSGEN (XDUM2,8),(XSER,24)
         DSGEN (XCPUMOD,16),(XDUM3,16)
         DSGEN (XPGMID,64)
         DSGEN (XJOBID,64)
         DSGEN (XMCKPSW,64)
M165     DS    178F
         DSGEN (A1LB,32)
         DSGEN (A1LC,32)
         DSGEN (A1LD,32)
         DSGEN (A1LE,32)
         DSGEN (A1LF,32)
         DSGEN (A1LG,32)
         DSGEN (A1LH,32)
         DSGEN (A1LJ,32)
         DSGEN (A1LK,32)
         DSGEN (A1LL,32)
         DSGEN (A2LB,32)
         DSGEN (A2LC,32)
         DSGEN (A2LD,32)
         DSGEN (A2LE,32)
         DSGEN (A2LF,32)
         DSGEN (A2LG,32)
         DSGEN (A2LH,32)
         DSGEN (A2LJ,32)
         DSGEN (A2LK,32)
         DSGEN (A2LL,32)
         DSGEN (A3LB,32)
         DSGEN (A3LC,32)
         DSGEN (A3LD,32)
         DSGEN (A3LE,32)
         DSGEN (A3LF,32)
         DSGEN (A3LG,32)
         DSGEN (A3LH,32)
         DSGEN (A3LJ,32)
         DSGEN (A3LK,32)
         DSGEN (A3LL,32)
         DSGEN (A4LB,32)
         DSGEN (A4LC,32)
         DSGEN (A4LD,32)
         DSGEN (A4LE,32)
         DSGEN (A4LF,32)
         DSGEN (A4LG,32)
         DSGEN (A4LH,32)
         DSGEN (A4LJ,32)
         DSGEN (A4LK,32)
         DSGEN (A4LL,32)
         DSGEN (A5LB,32)
         DSGEN (A5LC,32)
         DSGEN (A5LD,32)
         DSGEN (A5LE,32)
         DSGEN (A5LF,32)
         DSGEN (A5LG,32)
         DSGEN (A5LH,32)
         DSGEN (A5LJ,32)
         DSGEN (A5LK,32)
         DSGEN (A5LL,32)
         DSGEN (A6LB,32)
         DSGEN (A6LC,32)
         DSGEN (A6LD,32)
         DSGEN (A6LE,32)
         DSGEN (A6LF,32)
         DSGEN (A6LG,32)
         DSGEN (A6LH,32)
         DSGEN (A6LJ,32)
         DSGEN (A6LK,32)
         DSGEN (A6LL,32)
         DSGEN (A7LB,32)
         DSGEN (A7LC,32)
         DSGEN (A7LD,32)
         DSGEN (A7LE,32)
         DSGEN (A7LF,32)
         DSGEN (A7LG,32)
         DSGEN (A7LH,32)
         DSGEN (A7LJ,32)
         DSGEN (A7LK,32)
         DSGEN (A7LL,32)
         DSGEN (B0LB,32)
         DSGEN (B0LC,32)
         DSGEN (B0LD,32)
         DSGEN (B0LE,32)
         DSGEN (B0LF,32)
         DSGEN (B0LG,32)
         DSGEN (B0LH,32)
         DSGEN (B0LJ,32)
         DSGEN (B0LK,32)
         DSGEN (B0LL,32)
         DSGEN (B1LB,32)
         DSGEN (B1LC,32)
         DSGEN (B1LD,32)
         DSGEN (B1LE,32)
         DSGEN (B1LF,32)
         DSGEN (B1LG,32)
         DSGEN (B1LH,32)
         DSGEN (B1LJ,32)
         DSGEN (B1LK,32)
         DSGEN (B1LL,32)
         DSGEN (B2LB,32)
         DSGEN (B2LC,32)
         DSGEN (B2LD,32)
         DSGEN (B2LE,32)
         DSGEN (B2LF,32)
         DSGEN (B2LG,32)
         DSGEN (B2LH,32)
         DSGEN (B2LJ,32)
         DSGEN (B2LK,32)
         DSGEN (B2LL,32)
         DSGEN (B3LB,32)
         DSGEN (B3LC,32)
         DSGEN (B3LD,32)
         DSGEN (B3LE,32)
         DSGEN (B3LF,32)
         DSGEN (B3LG,32)
         DSGEN (B3LH,32)
         DSGEN (B3LJ,32)
         DSGEN (B3LK,32)
         DSGEN (B3LL,32)
         DSGEN (B4LB,32)
         DSGEN (B4LC,32)
         DSGEN (B4LD,32)
         DSGEN (B4LE,32)
         DSGEN (B4LF,32)
         DSGEN (B4LG,32)
         DSGEN (B4LH,32)
         DSGEN (B4LJ,32)
         DSGEN (B4LK,32)
         DSGEN (B4LL,32)
         DSGEN (B5LB,32)
         DSGEN (B5LC,32)
         DSGEN (B5LD,32)
         DSGEN (B5LE,32)
         DSGEN (B5LF,32)
         DSGEN (B5LG,32)
         DSGEN (B5LH,32)
         DSGEN (B5LJ,32)
         DSGEN (B5LK,32)
         DSGEN (B5LL,32)
         DSGEN (B6LB,32)
         DSGEN (B6LC,32)
         DSGEN (B6LD,32)
         DSGEN (B6LE,32)
         DSGEN (B6LF,32)
         DSGEN (B6LG,32)
         DSGEN (B6LH,32)
         DSGEN (B6LJ,32)
         DSGEN (B6LK,32)
         DSGEN (B6LL,32)
         DSGEN (FLDLNGTH,16),(FAILINST,16)
         DS    CL2
         DSGEN (FAILINSR,16),(COMADR0,16)
         DSGEN (COMADR1,16),(INTCTL1,16)
         DSGEN (INTCTL1A,16),(HRDWRCVY,1),(SOFTRCVY,1),(TSKABORT,1),   X
               (TSKNODSP,1),(TERM,1),(XDUMY0,3),(MAINSTG,1),           X
               (BFRSTG,1),(CTLSTG,1),(XMAINSTG,1),(PROCESOR,1),        X
               (CHNERR,1),(TODCLK,1),(XDUMY1,1)
         DSGEN (INTMIT,1),(SOLID,1),(DATA,1),(ADDRESS,1),(MASK,1),     X
               (PROTECT,1),(XDUMY2,2),(RETRY,1),(REPAIR,1),            X
               (RECONFIG,1),(REFRESH,1),(MCIMCH,1),(DOWNCODE,3),       X
               (CPUID,4),(XDUMY3,12)
         DSGEN (XDUMY4,16),(RCDLOST1,16)
         DSGEN (RCDLOST2,32)
         DSGEN (MCSTATD6,32)
         DSGEN (MCSTATD7,32)
         DSGEN (MCSTATD8,32)
         DSGEN (MCSTATD9,32)
         DSGEN (MCSTATDA,32)
         DSGEN (MCSTATDB,32)
         DSGEN (MCSTATDC,32)
         DSGEN (MCSTATDD,32)
         DSGEN (MCSTATDE,32)
         DSGEN (MCSTATDF,32)
         DSGEN (MCSTATDG,32)
         DSGEN (MCSTATDH,32)
         DSGEN (MCSTATDJ,16),(DUMMY,16)
LOGEND   EQU   *-2
IFCEB165 CSECT                                                   S21021
***********************************************************************
*
***********************************************************************
ENTRYPTR DC    A(FORMAT1)
TABLNAME DC    CL8'IFCEB165'                                     S21021
REG9     DS    F
SAVE     DS    F
***
*              ***     SPECIAL ROUTINES AREA     ***
*
***********************************************************************
ROUT0    DS    0C
         STM   R3,R4,SAVER34            SAVE PRINT BFR PTR- LOG START
         BR    R14                      RETURN
ROUT1    DS    0C
         STM   R3,R8,XSAVE              SAVE ROUTINE REGISTERS
         L     R3,SAVER3                LOAD ADR OF PRINT BFR
         L     R7,L0(R4)                LOAD LOG DATA
         LA    R3,L3(R3)                INCREMENT PRINT BFR POINTER
         LA    R8,L4                    LOAD BYTE COUNT
ROUT1A   DS    0C
         LA    R5,L6                    LOAD BIT COUNT
ROUT1B   DS    0C
         SR    R6,R6                    CLEAR REGISTER R6
         MVI   L0(R3),CB                ASSUME 0 - SET BFR TO BLANK
         SLDL  R6,L1                    SHIFT DATA BIT INTO R6
         LTR   R6,R6                    TEST VALUE IN R6
         BZ    ROUT1C                   BRANCH IF R6 ZERO
         MVI   L0(R3),CS                MOVE SPLAT TO PRINT BFR
ROUT1C   DS    0C
         LA    R3,L3(R3)                INCREMENT PRINT BFR POINTER
         BCT   R5,ROUT1B                BRANCH ON BIT COUNT
         SLL   R7,L2                    BYPASS BITS 6 AND 7
         BCT   R8,ROUT1A                BRANCH ON BYTE COUNT
         LM    R3,R8,XSAVE              RESTORE REGISTERS
         BR    R14                      RETURN
************************************************************** @XA21819
* THIS ROUTINE WILL SET THE PROPER DUMP SIZE TO DUMP THE WHOLE @XA21819
* RECORD BASED ON THE SIZE WHICH PRECEDES THE START OF THE     @XA21819
* MCH RECORD.                                                  @XA21819
************************************************************** @XA21819
DUMPSET  STM   R4,R8,XSAVE             SAVE WORK REGS          @XA21819
         S     R4,TWO                  BACK UP PTR TO REC LEN  @XA21819
         MVC   WORKSIZE(2),0(R4)       GET RECORD LENGTH       @XA21819
         SR    R5,R5                   ZERO REG                @XA21819
         LH    R5,WORKSIZE             R5 = RECORD LENGTH      @XA21819
         SH    R5,HTWO                 GET ACTUAL RECD LENGTH  @XA21819
         BC    3,DUMPSET1              NO, LENGTH > ZERO       @XA21819
         MVC   DUMPSIZE(2),DUMPAMT     YES, USE DEFAULT SIZE   @XA21819
         B     FIN                     EXIT                    @XA21819
DUMPSET1 STH   R5,WORKSIZE             STORE FOR MOVE TO AVOID @XA21819
         MVC   DUMPSIZE(2),WORKSIZE    BOUNDARY PROBLEMS       @XA21819
FIN      SR    R15,R15                 DO NOT PRINT            @XA21819
         LM    R4,R8,XSAVE             RESTORE WORK REGS       @XA21819
         BR    R14                     EXIT                    @XA21819
TWO      DC    F'00000002'                                     @XA21819
HTWO     DC    H'0002'                                         @XA21819
WORKSIZE DC    H'0000'                 WORK AREA               @XA21819
DUMPAMT  DC    H'1754'                 DUMPSIZE IF LEN IS BAD  @XA21819
************************************************************** @XA21819
R0       EQU   0
R1       EQU   1
R2       EQU   2
R3       EQU   3
R4       EQU   4
R5       EQU   5
R6       EQU   6
R7       EQU   7
R8       EQU   8
R9       EQU   9
R10      EQU   10
R11      EQU   11
R12      EQU   12
R13      EQU   13
R14      EQU   14
R15      EQU   15
CC1      EQU   1
CC2      EQU   2
CC4      EQU   4
CC7      EQU   7
CC8      EQU   8
L0       EQU   0
L1       EQU   1
L2       EQU   2
L3       EQU   3
L4       EQU   4
L5       EQU   5
L6       EQU   6
L7       EQU   7
L8       EQU   8
L9       EQU   9
L10      EQU   10
CB       EQU   C' '
CS       EQU   C'*'
XWORK    DS    D
XSAVE    DS    6F
SAVER34  DS    2F
SAVER3   EQU   SAVER34
SAVER4   EQU   SAVER34+4
***********************************************************************
*
FORMAT1  DC    F'0'
FORMAT2  DC    F'0'
LABELPTR DC    A(LABLAREA)
DISP     DC    FL2'0'
***********************************************************************
         LINE       (1,1),(19,1),SKIP=1                          S21021
         ROUTINE    XKEY,ROUT0                                   S21021
       LABEL  'M/F FRAME B0 MAINTENANCE CONTROLS'
         LINE  ,(15,1)
       LABEL  'MCW MODE BITS - CPU A             RTRY  ECC'
         LINE  ,(3,1)
       LABEL '08 09 20 21 25 26 27 28 29 30 31 32 33 34 35  0  1  0  1'
         LINE  ,(1,1),SKIP=3
         ROUTINE    B0LB,ROUT1
       LABEL  'LB'
         LINE  ,(1,1),SKIP=1
       LABEL  'LC'
         LINE  ,(3,1)
       LABEL  'CONSOLE FILE ADDRESS BITS             CONSOLE FILE WCS AX
               DDRESS BITS'
         LINE  ,(4,1)
       LABEL  '0  1  2  3  4  5  6  7                 1  2  3  4  5  6 X
                7  8  9 10 11'
         LINE  ,(1,1),SKIP=3
         ROUTINE    B0LD,ROUT1
       LABEL  'LD'
         LINE  ,(1,1),SKIP=1
       LABEL  'LE'
         LINE  ,(5,1)
       LABEL  'MACHINE CHECK INTERRUPT CODE TRIGGERS'
         LINE  ,(3,1)
       LABEL  'SD SR CD ED DI SU SC SP PV IV FV GV CV LV'
         LINE  ,(1,1)
         ROUTINE    B0LF,ROUT1
       LABEL  'LF'
         LINE  ,(25,1)
       LABEL  'MAINTENANCE CONTROLS'
         LINE  ,(3,1)
       LABEL  ' 0  1  2  A DE RT WR RIP RD DS S SL MD MDM EV H OST   BYX
               S N STV'
         LINE  ,(1,1)
         ROUTINE    B0LG,ROUT1
       LABEL  'LG'
         LINE  ,(3,1)
       LABEL  'SR OP BE IC OP PG  MLCR EN  E RST   RTRY-CNT SS ST ST   X
                LOGOUT'
         LINE  ,(3,1)
       LABEL  'LC 3S IU VL IV SC  0  1 IN BSY SQ    0  1  2 IV LC EE   X
                NS  LS'
         LINE  ,(1,1)
         ROUTINE    B0LH,ROUT1
       LABEL  'LH'
         LINE  ,(3,1)
       LABEL  'RG ST PT RS EX UR  MSSR     EL'
         LINE  ,(3,1)
       LABEL  'AL AL ST ST SB EV  0  1 IPT CY PRG  CHN LP'
         LINE  ,(1,1),SKIP=3
         ROUTINE    B0LJ,ROUT1
       LABEL  'LJ'
         LINE  ,(1,1),SKIP=3
       LABEL  'LK'
         LINE  ,(1,1),SKIP=3
       LABEL  'LL'
         LINE  ,(19,1),SKIP=1
       LABEL  'M/F FRAME B1 SCU - CHN MATRIX CTLS'
         LINE  ,(4,1)
       LABEL  'ADDR VALID    CIB   RSV IB             CH 0 ASSIGNED TO X
               CH-BFR GRP'
         LINE  ,(3,1)
       LABEL  'SNC LA TA LB   BSY   CH1 2           1  2  3  4  5  6  7X
                 9  A  B  C  D'
         LINE  ,(1,1)
         ROUTINE    B1LB,ROUT1
       LABEL  'LB'
         LINE  ,(3,1)
       LABEL  'FRZ   CHM   LOGL STG BSY                CH 1 ASSIGNED TOX
                CH-BFR GRP'
         LINE  ,(3,1)
       LABEL  'SPR   SPR    0  1  2  3              1  2  3  4  5  6  7X
                 9  A  B  C  D'
         LINE  ,(1,1)
         ROUTINE    B1LC,ROUT1
       LABEL  'LC'
         LINE  ,(3,1)
       LABEL  'COB-PR ND      PSU                      CH 2 ASSIGNED TOX
                CH-BFR GRP'
         LINE  ,(3,1)
       LABEL  'BS FT CHS      CHS                   1  2  3  4  5  6  7X
                 9  A  B  C  D'
         LINE  ,(1,1)
         ROUTINE    B1LD,ROUT1
       LABEL  'LD'
         LINE  ,(5,1)
       LABEL  'CHECKS TO CHANNEL                     CH 3 ASSIGNED TO CX
               H-BFR GRP'
         LINE  ,(3,1)
       LABEL  'ADR   KEY   DTA   PROT               1  2  3  4  5  6  7X
                 9  A  B  C  D'
         LINE  ,(1,1)
         ROUTINE    B1LE,ROUT1
       LABEL  'LE'
         LINE  ,(5,1)
       LABEL  'CHECKS TO CHANNEL                     CH 4 ASSIGNED TO CX
               H-BFR GRP'
         LINE  ,(3,1)
       LABEL  'MRK   CIB   COB   IA                 1  2  3  4  5  6  7X
                 9  A  B  C  D'
         LINE  ,(1,1)
         ROUTINE    B1LF,ROUT1
       LABEL  'LF'
         LINE  ,(3,1)
       LABEL  'CHAN BFR-OUT DATA CHECK                 CH 5 ASSIGNED TOX
                CH-BFR GRP'
         LINE  ,(3,1)
       LABEL  ' 0  1  2  3  4  5  6  7              1  2  3  4  5  6  7X
                 9  A  B  C  D'
         LINE  ,(1,1)
         ROUTINE    B1LG,ROUT1
       LABEL  'LG'
         LINE  ,(43,1)
       LABEL  'CH 6 ASSIGNED TO CH-BFR GRP'
         LINE  ,(40,1)
       LABEL  '1  2  3  4  5  6  7  9  A  B  C  D'
         LINE  ,(1,1),SKIP=3
         ROUTINE    B1LH,ROUT1
       LABEL  'LH'
         LINE  ,(1,1),SKIP=3
       LABEL  'LJ'
         LINE  ,(1,1),SKIP=3
       LABEL  'LK'
         LINE  ,(1,1),SKIP=3
       LABEL  'LL'
         LINE  ,(19,1),SKIP=1
       LABEL  'M/F FRAME B2 SCU- CHANNEL CTLS'
         LINE  ,(26,1)
       LABEL  'REQUEST FOR CHANNEL IN-BUS'
         LINE  ,(4,1)
       LABEL  'GRP1  GRP2  GRP3  GRP4  GRP5  GRP6  GRP7  GRP9  GRPA  GRX
               PB  GRPC  GRPD'
         LINE  ,(1,1)
         ROUTINE    B2LB,ROUT1
       LABEL  'LB'
         LINE  ,(27,1)
       LABEL  'CHANNEL-BUFFER RESPONSE'
         LINE  ,(4,1)
       LABEL  'GRP1  GRP2  GRP3  GRP4  GRP5  GRP6  GRP7  GRP9  GRPA  GRX
               PB  GRPC  GRPD'
         LINE  ,(1,1)
         ROUTINE    B2LC,ROUT1
       LABEL  'LC'
         LINE  ,(30,1)
       LABEL  'REMEMBER RESPONSE'
         LINE  ,(4,1)