 TITLE 'IFCEM155 MODEL 155 OLYMPUS EDIT TABLE 2'
         MACRO
&NAME    LINE  &DATA,&LABEL,&SKIP=
.*                            THIS MACRO ESTABLISHES THE MARGINS OR
.*                                 COLUMN SETTINGS FOR EACH LINE. IT
.*                                 GENERATES NECESSARY CARRIAGE CONTROL
.*                                 ENTRIES. LASTLY IT DETERMINES THE
.*                                 NUMBER OF ENTRIES ASSOCIATED WITH
.*                                 THE PREVIOUS LINE AND STORES THAT #
.*                                 INTO THE APPROPRIATE BYTE.
.*                            &DATA(1) - CHARACTER POSITION TO BEGIN
.*                                 DATA.
.*                            &DATA(2) - # OF SPACES BETWEEN SUCCESSIVE
.*                                 DATA COLUMN STARTING CHARACTERS.
.*                            &LABEL(1) - CHAR. POS. TO BEGIN LABELS.
.*                            &LABEL(2) - # SPACES BETWEEN LINE'S LABEL
.*                                 STARTING CHARACTERS.
.*                            &SKIP= - # OF LINES TO ADVANCE CARRIAGE
.*                                 TO BEGIN NEXT PRINTED LINE.
.*                            NEW ENTRIES ARE GENERATED ONLY WHEN
.*                                 NECESSARY. OMISSION OF ITEMS MEANS
.*                                 THEY HAVE NOT CHANGED SINCE PREVIOUS
.*                                 SETTINGS. A LINE MACRO IS REQUIRED
.*                                 FOR EACH PRINTED LINE. IF NO SETTING
.*                                 CHANGES ARE REQUIRED ALL OPERANDS
.*                                 ARE OMITTED IN WHICH CASE ONLY THE
.*                                 # OF ENTRIES FOR THE PREVIOUS LINE
.*                                 IS COMPUTED. THIS MACRO MUST BE THE
.*                                 FIRST MACRO INSTRUCTION ISSUED FOR
.*                                 THE SUBJECT LINE
         GBLA  &DB,&DT,&LB,&LT,&NRENTS
         GBLA  &LASTCC,&INITIAL
         GBLC  &NRENTSX
         GBLC  &CARRCON
         GBLB  &TEST
         GBLB  &DIAGTST,&DIAGSET,&DIAGLIN
         LCLA  &S
         AIF   (&INITIAL EQ 0 OR &DIAGTST EQ 0).DIAGSET
         AIF   (&DIAGSET EQ 0).DIAGSET
         MNOTE '**NO LABEL ASSOCIATED WITH LAST SET**'
***** THE FOLLOWING GENERATED FOR TEST PURPOSES *****
*        LABEL '%%%%%%%%%%%%%%%%%%%%%%%%%%%%%%%%%%%%%%%%%%%%%%%%'
               LABEL '%%%%%%%%%%%%%%%%%%%%%%%%%%%%%%%%%%%%%%%%%%%%%%%%'
.DIAGSET ANOP
&DIAGSET SETB  1
&DIAGLIN SETB  1
&NAME    DS    0C
         AIF   (&INITIAL EQ 0).FIRSTLN
         LINEND
         AGO   .NTFIRST
.FIRSTLN ANOP
&NRENTSX SETC  'N&SYSNDX'
&INITIAL SETA  1
N&SYSNDX EQU   *
.NTFIRST ANOP
         DC    AL1(0)
         AIF   ('&DATA(1)' EQ '').CKDTABS
         AIF   (&DATA(1) EQ &DB).CKDTABS
&DB      SETA  &DATA(1)
         AGO   .AA
.CKDTABS AIF   ('&DATA(2)' EQ '').NCDATA
         AIF   (&DATA(2) EQ &DT).NCDATA
         AGO   .CC
.AA      AIF   ('&DATA(2)' EQ '').BB
         AIF   (&DATA(2) EQ &DT).BB
.CC      ANOP
&DT      SETA  &DATA(2)
.BB      DC    XL2'FFFE'
         DC    FL1'&DB'
         DC    FL1'&DT'
&NRENTS  SETA  &NRENTS+1
.NCDATA  ANOP
         AIF   ('&LABEL(1)' EQ '').CKLTABS
         AIF   (&LABEL(1) EQ &LB).CKLTABS
&LB      SETA  &LABEL(1)
         AGO   .AAA
.CKLTABS AIF   ('&LABEL(2)' EQ '').NCLABEL
         AIF   (&LABEL(2) EQ &LT).NCLABEL
         AGO   .CCC
.AAA     AIF   ('&LABEL(2)' EQ '').BBB
         AIF   (&LABEL(2) EQ &LT).BBB
.CCC     ANOP
&LT      SETA  &LABEL(2)
.BBB     DC    XL2'FFFF'
         DC    FL1'&LB'
         DC    FL1'&LT'
&NRENTS  SETA  &NRENTS+1
.NCLABEL ANOP
         AIF   ('&SKIP' NE '').CONT
         AIF   (&TEST EQ 0).NOCHANG
         AGO   .DEFALTA
.CONT    ANOP
         AIF   (&TEST EQ 0).AB
         AIF   ('&SKIP' EQ 'E').AB
&S       SETA  &SKIP
.DEFAULT ANOP
         AIF   (&SKIP EQ &LASTCC).DEFALTA
         ORG   &CARRCON+3
         DC    AL.3(0),AL.2(&S),AL.3(1)
         ORG
&LASTCC  SETA  &S
.DEFALTA ANOP
&TEST    SETB  0
         AGO   .DD
.AB      AIF   ('&SKIP' NE 'E').ABB
A&SYSNDX DC    X'FFFB8B00'              EJECT
         AGO   .ABC
.ABB     AIF   (&SKIP EQ &LASTCC).NOCHANG
A&SYSNDX DC    XL2'FFFB'
         DC    AL.3(0),AL.2(&SKIP),AL.3(1)
         DC    AL.3(0),AL.2(&SKIP),AL.3(1)
&LASTCC  SETA  &SKIP
&TEST    SETB  1
.ABC     ANOP
&CARRCON SETC  'A&SYSNDX'
&NRENTS  SETA  &NRENTS+1
.DD      ANOP
.NOCHANG ANOP
         MEND
*
***********************************************************************
*
*
         MACRO
&NAME    ROUTINE  &LOGITEM,&RNAME
         GBLC  &ITEM(3000)
         GBLA  &SHIFT(3000),&ITEMNBR
         GBLC  &DSECT,&CSECT
         GBLA  &NRENTS
         LCLA  &ISHIFT,&NDX
.LOOP    ANOP
&NDX     SETA  &NDX+1
         AIF   ('&ITEM(&NDX)' EQ '&LOGITEM').FOUND
         AIF   (&NDX LT &ITEMNBR).LOOP
         MNOTE 'LOG ITEM NOT DEFINED'
         MEXIT
.FOUND   ANOP
&ISHIFT  SETA  &SHIFT(&NDX)
&NAME    DC    AL.12(&LOGITEM-&DSECT),XL.4'D'
         DC    AL.4(&ISHIFT),AL.12(&RNAME-&CSECT)
&NRENTS  SETA  &NRENTS+1
         MEND
*
*
***********************************************************************
*
*
         MACRO
&NAME    LABEL &LABEL1,&LABEL2,&LABEL3,&LABEL4,&LABEL5,&LABEL6,        C
               &LABEL7,&LABEL8
.*                                 THIS MACRO ALLOWS LABELS TO
.*                                 BE SPECIFIED FOR A GIVEN LINE. THE
.*                                 LABELS SHOULD BE ENCLOSED IN QUOTA-
.*                                 TION MARKS. THE COLUMN AND LINE END
.*                                 CONTROLS WILL BE INSERTED BY THE
.*                                 MACRO. OMITTED OPERANDS MEAN NO
.*                                 LABEL REQUIRED FOR RESPECTIVE
.*                                 COLUMN.
         GBLC &LABELS(3000)
         GBLC  &LBL(300)
         GBLA  &LBLCTR(300)
         GBLA  &LABELNR
         GBLA  &NRENTS,&LPTR,&INITIAL
         GBLB  &DIAGTST,&DIAGSET,&DIAGLIN
         LCLC  &MARGIN,&TACK
         LCLC  &TEXT
         LCLA  &OP,&K,&START,&NRCHAR,&REMAIN
         ACTR  500000
         AIF   (&INITIAL EQ 0).DIAGCLR
         AIF   (&DIAGTST EQ 0).DIAGCLR
         AIF   (&DIAGLIN EQ 1).DIAGCLR
         MNOTE '**NO LINE ASSOCIATED WITH PREVIOUS LABEL**'
***** THE FOLLOWING GENERATED FOR TEST PURPOSES *****
*        LINE
         LINE
.DIAGCLR ANOP
&DIAGSET SETB  0
&DIAGLIN SETB  0
&MARGIN  SETC  '*'
         AIF   ('&NAME' EQ '').LOOPOUT
&LPTR    SETA  &LPTR+1
&LBL(&LPTR) SETC '&NAME'
&LBLCTR(&LPTR) SETA &LABELNR+1
.LOOPOUT ANOP
&OP      SETA  &OP+1
&K       SETA  K'&SYSLIST(&OP)
         AIF (&K GE 2).NORM
&K       SETA  2
.NORM    ANOP
&START   SETA  2
         AIF (&OP LT N'&SYSLIST).NOTLAST
&MARGIN  SETC  '$'
.NOTLAST ANOP
&NRCHAR  SETA  8
&TACK    SETC  ''
.LOOPIN  ANOP
&REMAIN  SETA  &K-&START
         AIF (&REMAIN GE 8).MORE
&TACK    SETC  '&MARGIN'
&NRCHAR  SETA  &REMAIN
.MORE    ANOP
&TEXT    SETC  ''
         AIF (&REMAIN EQ 0).ENDTEXT
&TEXT    SETC  '&SYSLIST(&OP)'(&START,&NRCHAR)
.ENDTEXT ANOP
&LABELNR SETA  &LABELNR+1
&LABELS(&LABELNR) SETC '&TEXT'.'&TACK'
&START   SETA  &START+8
         AIF ('&TACK' EQ '').LOOPIN
         AIF ('&TACK' EQ '*').LOOPOUT
         MEND
         SPACE 2
         MACRO
         LSTART
.*                            THIS MACRO IS ISSUED WHEN THE LABEL AREA
.*                                 OF THE TABLE IS TO BEGIN.
         GBLC &LABELS(3000)
         GBLA  &LABELNR
         GBLC  &LBL(300)
         GBLA  &LBLCTR(300)
         LCLA  &NDX,&CTR
         LINEND
&CTR     SETA  1
.LOOP    ANOP
&NDX     SETA  &NDX+1
         AIF   (&LBLCTR(&CTR) NE &NDX).NOLBL
&LBL(&CTR) DC  C'&LABELS(&NDX)'
&CTR     SETA  &CTR+1
         AGO   .LOOPCTL
.NOLBL   ANOP
         DC    C'&LABELS(&NDX)'
.LOOPCTL AIF   (&NDX LT &LABELNR).LOOP
         MEND
*
*
***********************************************************************
*
*
         MACRO
         LINEND
.*                                 THIS MACRO IS USED ONLY BY THE LINE
.*                                 MACRO TO SET THE NUMBER OF ENTRIES
.*                                 ASSOCIATED WITH EACH LINE.
         GBLA  &NRENTS
         GBLC  &NRENTSX
         ORG   &NRENTSX
         DC    FL1'&NRENTS'
         ORG
&NRENTS  SETA  0
B&SYSNDX EQU   *
&NRENTSX SETC  'B&SYSNDX'
         MEND
*
*
***********************************************************************
*
*
         MACRO
&NAME    BIND  &Z1,&Z2,&Z3,&Z4
.*                                 THIS MACRO HELPS COLLOCATE BITS IN
.*                                 DIFFERENT AREAS OF THE LOG TO MAKE
.*                                 THEM ACCESSIBLE TO THE 'HEX' MACRO.
.*                                 EACH OPERAND HAS 3 SUBFIELDS:1 SPE-
.*                                 CIFIES BY LOGITEM NAME THE BYTE TO
.*                                 BE REFERENCED,2 GIVES THE NUMBER OF
.*                                 UNDESIRED BITS TO THE LEFT OF THE
.*                                 LOG ITEM'S FIRST BIT,3 GIVES THE LOG
.*                                ITEM'S LENGTH IN BITS. THE MACRO
.*                                CAUSES THE INFORMATION TO BE STORED &
.*                                CONTROL IS GIVEN TO THE 'BINDER' ROU-
.*                                TINE,WHICH STORES THE COLLOCATED
.*                                BITS RIGHT-JUSTIFIED IN THE FOUR-
.*                                BYTE WORK AREA INSERTED IN THE LOG,
.*                                BEGINNING AT 'LOGWORK1'
         GBLC      &DSECT
         LCLA  &OP
         ACTR  500000
&NAME    BC    15,BINDER
.LOOP    ANOP
&OP      SETA  &OP+1
         DC    AL.16(&SYSLIST(&OP,1)-&DSECT)
         DC    FL1'&SYSLIST(&OP,2)'
         DC    FL1'&SYSLIST(&OP,3)'
         AIF   (&OP LT N'&SYSLIST).LOOP
         ORG   &NAME+4
         DC    AL.4(&OP),AL.12(&SYSLIST(1,1)-&DSECT)
         ORG
         MEND
         MACRO
&NAME    CKPARITY  &PAR1,&PAR2,&PAR3,&PAR4,&PAR5,&PAR6
.*                                THIS MACRO HELPS SET THE LOCATION
.*                                CONTROLS FOR A SPECIAL ROUTINE TO
.*                                CHECK PARITY ON ITEMS FROM THE LOG
.*                                ALREADY ASSEMBLED FOR PRINTING IN THE
.*                                PRINT BUFFER THAT HAS BEEN SET UP.
.*                                EACH OPERAND (UP TO SIX) HAS THREE
.*                                SUBFIELDS:1 GIVES THE DISPLACEMENT
.*                                FROM PRINT POSITION ZERO TO BEGIN
.*                                THE PARITY CHECK(I.E.,LOC. OF PARITY
.*                                BIT IN BUFFER);2 GIVES THE NUMBER OF
.*                                POSITIONS TO CHECK AGAINST THE PARITY
.*                                BIT (ASSUMING 1 SPACE BETWEEN PAR BIT
.*                                AND THE FIRST POSITION TO BE CHECKED)
.*                                3 GIVES THE NUMBER OF SEQUENTIAL PAR.
.*                                CHECKS OF THIS SORT TO MAKE,ASSUMING
.*                                TWO SPACES BETWEEN THE LAST POSITION
.*                                CHECKED AND NEXT PAR. BIT POSITION
         LCLA  &OP
&NAME    BC    15,PARPUT
         DC    X'0'
.LOOP    ANOP
&OP      SETA  &OP+1
         DC    FL1'&SYSLIST(&OP,1)'
         DC    FL1'&SYSLIST(&OP,2)'
         DC    FL1'&SYSLIST(&OP,3)'
         AIF   (&OP LT N'&SYSLIST).LOOP
         ORG   &NAME+4
         DC    FL1'&OP'
         ORG
         MEND
         MACRO
         DSGENFET
         DS    0F
         DSGEN (XKEY,16),(XSWS0,8),(XSWS8,1),(XSWS9,1),                *
               (XSWS10,1),(XSWS11,1),                                  *
               (XSWS12,1),(XSWS13,1),(XSWS14,1),(XSWS15,1)
         DSGEN (LOGWORK1,8),(LOGWORK2,6),(LOGWORK3,2),(LOGWRK3A,4),    *
               (LOGWRK3B,3),(LOGWRK3C,1),(LOGWORK4,8)
         DSGEN (XDATE,32)
         DSGEN (XTIME,32)
         DSGEN (XDUM2,8),(XSER,24)
         DSGEN (XCPUMOD,16),(XDUM3,16)
         DSGEN (XPGMID,64)
         DSGEN (XJOBID,64)
         DSGEN (XMCKPSW,64)
         DSGEN (SYSDAM,1),(PROCD,1),(SYSREC,1),(TIMDAM,1),(CLOCKD,1),  X
               (EXTDAM,1),(MDUM0,1),(AUTOCON,1),(WARNG,1),             X
               (DUM,5),(BACKUP1,1),(DELAY,1),(UNSTOR,1),               *
               (CORRST,1),(KEYERR,1),(DUMMY001,1),(EMWP,1),            *
               (SYSMSK,1),(PGMSK,1),(IAVLD,1),(FASTVLD,1),             X
               (RCVLD,1),(MDUM3,1),(FLPVLD,1),(GPRVLD,1),              X
               (CTLVLD,1),(LOGVLD,1),(STVLD,1)
         DS    276C
         DSGEN (XBUS0,8),(XBUS1,8),(XBUS2,8),(XBUS3,8)
         DSGEN (YBUS0,8),(YBUS1,8),(YBUS2,8),(YBUS3,8)
         DSGEN (ZBUS0,8),(ZBUS1,8),(ZBUS2,8),(ZBUS3,8)
         DSGEN (UBUS,8),(VBUS,8),(WBUS,8),(FILREG,8)
         DSGEN (STLNK,1),(RABUSRP,1),(RABUSBI,1),(RABUS1P,1),          *
               (RABUS1,4),(RABUS3,8),(BFRBUSY,1),(RBAR1RP,1),          *
               (RBAR1BI,1),(RBAR11P,1),(RBAR11,4),(RBAR13,8)
         DSGEN (LSSSTS,2),(CPURLAR,6),(WRCPULS,1),(DUMMY000,1),        *
               (CPUWLAR,6),(DUMMY002,1),(DUMMY003,1),(IORLAR,6),       *
               (WRIOLS,1),(DUMMY004,1),(IOWLAR,6)
         DSGEN (EXTSW0,8),(EXTSW1,8),(EXTSW2,8),(EXTSW3,8)
         DSGEN (SPARE030,8),(SPARE031,8),(SPARE032,8),(SPARE033,8)
         DSGEN (AREG0,8),(AREG1,8),(AREG2,8),(AREG3,8)
         DSGEN (BREG0,8),(BREG1,8),(BREG2,8),(BREG3,8)
         DSGEN (CREG0,8),(CREG1,8),(CREG2,8),(CREG3,8)
         DSGEN (DREG0,8),(DREG1,8),(DREG2,8),(DREG3,8)
         DSGEN (IOLSD0,8),(IOLSD1,8),(IOLSD2,8),(IOLSD3,8)
         DSGEN (CPULS0,8),(CPULS1,8),(CPULS2,8),(CPULS3,8)
         DSGEN (IOSAR0,8),(IOSAR1,8),(IOSAR2,8),(IOSAR3,8)
         DSGEN (CPUSR0,8),(CPUSR1,8),(CPUSR2,8),(CPUSR3,8)
         DSGEN (SPARE034,8),(IAR1,8),(IAR2,8),(IAR3,8)
         DSGEN (PSWSM,8),(PSWKEY,8),(PSWESM,8),(CONSUM,1),     @YA02788X
               (STRT,1),(RSTRT,1),(MPRSET,1),(SPARE035,4)      @YA02788
         DSGEN (RBAR2IO,1),(RBAR2RP,1),(RBAR2BI,1),(RBAR21P,1),        *
               (RBAR21,4),(RBAR23,8),(RBAR3IO,1),(RBAR3RP,1),          *
               (RBAR3BI,1),(RBAR31P,1),(RBAR31,4),(RBAR33,8)
         DSGEN (BS0,4),(BS4P,1),(BS4,3),(ABCTRP,1),                    *
               (ABCTR,3),(CBCTRP,1),(CBCTR,3),(IFTHRS,1),              *
               (IFRES,1),(IFINV,1),(IFPRTC,1),(IFIC,1),                *
               (IFEXS,1),(IFILC,2),(ALUFNR,4),                         *
               (QBIT,1),(CCST,1),(CSA,1),(CSB,1)
         DSGEN (L12CTR,8),(L2SS,1),(CC,2),                             *
               (FNBR,2),(ALWTRP,1),(NSSMD,1),(DUMMY006,1),             *
               (R12CTR,8),(INABRR,3),(INBBRR,4),(HYRST,1)
         DSGEN (SRADAD1,7),(HRDCHK,1),(SERADM,1),(INTDL,1),            *
               (WAITFR,1),(ENGHEAD,1),(INPERR,1),(CLKERR,1),           *
               (ABCOMPS,1),(LOGCMPS,1),(DIAGCTR,8),(SPRWL036,7),       X
               (R5136,1)
         DSGEN (DUMMY007,1),(DUMMY008,1),(INDDISP,1),(CPURA1P,1),      *
               (CPURA1,4),(CPURA3,8),(GPSTL1,4),(GPSTL2P,1),           *
               (GPSTL2,3),(S19,1),(EXTST,1),(ANYEXC,1),                *
               (ICPLUS4,1),(IC1B29,1),(IB0FULL,3)
         DSGEN (SPARE037,8),(SPARE038,8),(SPARE039,8),(SPARE040,8)
         DSGEN (XBUSE,4),(YBUSE,4),(CARRYE,8),(HSUME,4),(ZBUSE,4),     *
               (LSREGE,4),(CISARE,4)
         DSGEN (GPSTE,2),(LCTRE,1),(RCTRE,1),                          *
               (DUMMY009,1),(DUMMY010,1),(ABE,1),(CBE,1),              *
               (PSW0E,1),(PSW1E,1),(PSW2E,1),(PSW3E,1),                *
               (WBUSE,1),(ABCTRE,1),(CBCTRE,1),(MEME,1),               *
               (EXTSWE,4),(EESW0E,1),(HOFFE,1),(ABDLYE,1),(EESW3E,1),  *
               (CLSARE,1),(CH02E,1),(CH35E,1),(MVRHSE,1),              *
               (MPSCC,1),(MVRFNE,1),(ICE,2)                    @YA02788
         DSGEN (ERLYRE,3),(RSYNCE,1),                                  *
               (LATER0E,1),(LATER1E,1),(LATER2E,1),(LATER3E,1),        *
               (MISDECE,1),(SSDECE,1),(CNTDECE,1),(BBRE,1),            *
               (RADRE,1),(ZDECE,1),(CRUCWLS,1),(TMKE,1),               *
               (SPARE041,8),(SPARE042,8)
         DSGEN (CP1R0,4),(CP1R1P,1),(CP1R1,3),(CP2R0P,1),              *
               (CP2NC,1),(CP2SE,1),(CP2DE,1),(CP2IE,1),                *
               (CP2R1P,1),(CP2HC,1),(CP2AC,1),(CP2R3,1),               *
               (ERRCTR,4),(IGNORE1,1),(SERDIS,1),(ENDATA,1),           *
               (SDC,1),(DUMMY015,1),(HARDST,1),(ADRCPST,1),            *
               (DUMMY016,1),(DUMMY017,1),(DUMMY018,1),(DUMMY019,1)
         DSGEN (ABI1,1),(NXA1,3),(NXB1,4),(BRC11,1),                   *
               (ABR1,5),(BBR01,2),(BBR21,2),(IOPR,2),                  *
               (IOSSB,3),(XYALU01,1),(XYALU21,2),(UX1,3),              *
               (VY1,3)
         DSGEN (LRSP,1),(LSWR,4),(LSRD,3),(MISC21,2),                  *
               (CNT1,4),(Z01,2),(Z21,1),(ZW1,4),                       *
               (XYSH1,3),(EMIT1,5),(EMIT2,3)
SPARE043 DS    136C
         DSGEN (CHSELA0,1),(CHSELA1,1),(CHSELA2,1),(CHIOM,1),          *
               (CHROAR,1),(CHNUM0,1),(CHNUM1,1),(CHNUM2,1),            *
               (CHREQC1,1),(CHREQCB,1),(CIOMLTH,1),(IOMB,1),           *
               (C1PR2,1),(C1PR3,1),(C2PR2,1),(C2PR3,1),                *
               (C3PR2,1),(C3PR3,1),(C4PR2,1),(C4PR3,1),                *
               (C5PR2,1),(C5PR3,1),(MPXOS2,1),(DUMMY185,1),            *
               (DUMMY186,1),(DUMMY187,1),(DUMMY188,1),(DUMMY189,1),    *
               (DUMMY190,1),(ANYIR,1),(CHDIAGM,1),(CHFC,1)
         DSGEN (SNSBYTX,8),(RDYX,1),(SELPGX,1),(XSDSEL,1),(SEQ1X,1),   *
               (SEQ2X,1),(SEQ3X,1),(SEQ4X,1),(SEQ5X,1),(DISCX,1),      *
               (STAPTYX,1),(ATTX,1),(BUSYX,1),(CHENDX,1),(DVENDX,1),   *
               (UNCKX,1),(UNEXCPX,1),(STACKX,1),(WRITX,1),(XREAD,1),   *
               (CTRLX,1),(SCBYX,1),(EOFX,1),(XSPARE,1),(ENCMPX,1)
         DS    4C
         DSGEN (C4HCE,1),(C4BCIE,1),(C4BME,1),(C4IRE,1),               *
               (C4LRE,1),(C4SBE,1),(C4SBOE,1),(C4ISE,1),               *
               (C4SPE,1),(C4SWE,1),(C5HCE,1),(C5BCIE,1),               *
               (C5BME,1),(C5IRE,1),(C5LRE,1),(C5SBE,1),                *
               (C5SBOE,1),(C5ISE,1),(C5SPE,1),(C5SWE,1),               *
               (CCCH3E,1),(CCCH4E,1),(CCCH5E,1),(C3CLE,1),             *
               (C3ITE,1),(C4CLE,1),(C4ITE,1),(C5CLE,1),                *
               (C5ITE,1),(C35SCE,1),(C35ITAE,1),(C35ITBE,1)
         DSGEN (BIRPE,1),(BIRE,1),(C0BCE,1),(C0BOCE,1),                *
               (C0S07E,1),(C0RE,1),(C0UCE,1),(C0CCE,1),                *
               (C0RCE,1),(C0ITE,1),(C0CLE,1),(C1ITE,1),                *
               (C1CLE,1),(C2ITE,1),(C2CLE,1),(UPDE,1),                 *
               (EMITFLE,1),(EMITINE,1),(PSWCKE,1),(L2CNTRE,1),         *
               (CSELCPE,1),(DUMMY191,1),(DUMMY192,1),(DUMMY193,1),     *
               (DUMMY194,1),(DUMMY195,1),(C02ITAE,1),(C02ITBE,1),      *
               (C02STCE,1),(SBPE,1),(OUTTAGE,1),(GRPSELE,1)
         DSGEN (DUMMY196,1),(DUMMY197,1),(ROSINTE,1),(ROSINPE,1),      *
               (LSTOCHE,1),(HDWCHE,1),(HCIE,1),(HRRE,1),               *
               (HLCE,1),(UPLSARE,1),(WRLSUPE,1),(IN1SELE,1),           *
               (IN2ROSE,1),(IN3SELE,1),(LS01INE,1),(LS23INE,1),        *
               (INTCRDE,1),(LOGYINE,1),(LOGRDRE,1),(DUMMY198,1),       *
               (STBBE,1),(STDCDE,1),(YICDCDE,1),(BUSPTYE,1),           *
               (RLCTRE,1),(DUMMY199,1),(DUMMY200,1),(DUMMY201,1),      *
               (LSUCWAE,1),(BIRESPE,1),(SELCNE,1),(MURE,1)
         DSGEN (HCIDE,1),(UPCIDE,1),(C0BOPE,1),(C0BIE,1),              *
               (C1BOPE,1),(C1BIE,1),(C2BOPE,1),(C2BIE,1),              *
               (C3BOPE,1),(C3BIE,1),(C4BOPE,1),(C4BIE,1),              *
               (C5BOPE,1),(C5BIE,1),(HCLE,1),(LSRLOGE,1),              *
               (C0WRLSE,1),(C1WRLSE,1),(C2WRLSE,1),(C3WRLSE,1),        *
               (C4WRLSE,1),(C5WRLSE,1),(C01CXE,1),(C23CXE,1),          *
               (C45CXE,1),(MPCIDE,1),(DUMMY202,1),(DUMMY203,1),        *
               (DUMMY204,1),(DUMMY205,1),(DUMMY206,1),(DUMMY207,1)
         DSGEN (SNSBYTY,8),(RDYY,1),(SELPGY,1),(YSDSEL,1),(SEQ1Y,1),   *
               (SEQ2Y,1),(SEQ3Y,1),(SEQ4Y,1),(SEQ5Y,1),(DISCY,1),      *
               (STAPTYY,1),(ATTY,1),(BUSYY,1),(CHENDY,1),(DVENDY,1),   *
               (UNCKY,1),(UNEXCPY,1),(STACKY,1),(WRITY,1),(YREAD,1),   *
               (CTRLY,1),(SCBYY,1),(EOFY,1),(YSPARE,1),(ENCMPY,1)
         DSGEN (AIRINE1,6),(AIROE0,2),(ADOE,4),(BSMB1E,2),     @Z02774 X
               (ECCLOE,1),(ECCHIE,1),(SASTORE,1),(SATS,1),             X
               (ECCRD,1),(UCWSEL,1),(IOMODE,1),(DUMMY208,1),           X
               (UCORIO,1),(UCORCPU,1),(ECCBB,8)
         DSGEN (CONSDR,8),(CONSECE,1),(CONSTOE,1),(CONSR0E,1),         *
               (CONSR3E,1),(CONSCRL,1),(CONSWR,1),(DUMMY209,1),        *
               (CONSEXC,1),(SPARE074,8),(SPARE075,8)
         DSGEN (SPARE076,8),(SPARE077,8),(SPARE078,8),(SPARE079,8)
         DSGEN (SPARE080,8),(SPARE081,8),(SPARE082,8),(SPARE083,8)
         DSGEN (FALE0,8),(FALE1,8),(FALE2,8),(FALE3,8)
         DSGEN (FALO0,8),(FALO1,8),(FALO2,8),(FALO3,8)
         DSGEN (FAHE0,8),(FAHE1,8),(FAHE2,8),(FAHE3,8)
         DSGEN (FAHO0,8),(FAHO1,8),(FAHO2,8),(FAHO3,8)
         DSGEN (SPARE084,8),(BCUS1,8),(BCUS2,8),(BCUS3,8)
         DSGEN (SPARE085,8),(ASARB1,8),(ASARB2,8),(ASARB3,4),(ASARB4,4)
         DSGEN (R540,1,2,9),(R54,1,11,18),(R54,1,20,27),(R54,1,29,36)
BASIC    DSGEN (EMITE,1,EQU,R5402),(TIMEOE,1,EQU,R5403),               X
               (SPKEYOE,1,EQU,R5404),(KEYBUSE,1,EQU,R5405),            X
               (SAR1E,3,EQU,R5406),(C40B0E,1,EQU,R5409),               X
               (C40B2E,6,EQU,R5411),(IDXLE,1,EQU,R5417),               X
               (IDXUE,1,EQU,R5418),(RDCOMPE,1,EQU,R5420),              X
               (BYTEMKE,1,EQU,R5421),(SDR08E,1,EQU,R5422),             X
               (SDR19E,1,EQU,R5423),(SDR210E,1,EQU,R5424),             X
               (SDR311E,1,EQU,R5425),(SDR412E,1,EQU,R5426),            X
               (SDR513E,1,EQU,R5427),(SDR715E,1,EQU,R5429)
M9       DSGEN (ER5405,3,EQU,R5405),(ER5411,5,EQU,R5411),              X
               (ER5408,2,EQU,R5408),(R542627,2,EQU,R5426),             X
               (R540507,3,EQU,R5405)
         DSGEN (LINDXA,5),(LINDXB,3),(LINDXV1,1),(LINDXV2,1),          *
               (LINDXOK,1),(LOWERBC,1),(LOWERVC,1),(LOWOKO,1),         *
               (LOWERA,1),(MSSELBR,1),(UINDXA,5),(UINDXB,3),           *
               (UINDXV1,1),(UINDXV2,1),(UINDXOK,1),(UPPERBC,1),        *
               (UPPERVC,1),(UPROKO,1),(UPPERA,1),(BACKSBY,1)
         DSGEN (BCUB0,4),(BCUB4P,1),(BCUB4,3),(BCUB8P,1),              *
               (BCUB8,4),(BCUB12P,1),(BCUB12,2),(BCUB15,1),            *
               (ADP2SEL,1),(ADP2ECC,1),(ADP2MCK,1),(DUMMY217,1),       *
               (DUMMY218,1),(DUMMY219,1),(IVA,1),(R2529,5),            *
               (R2534,1),(R2535,2)
         DSGEN (BCURD,1),(BCUWR,1),(BCUFIB,1),(BCUSPMS,1),             *
               (BCUIECC,1),(BCUDC40,1),(BCUIOMD,1),(ECCMD1,1),         *
               (EDRDECC,1),(DUMMY220,1),(EDTS,1),(R1514,1),            *
               (R1515,1),(R1516,1),(EDWSPK,1),(R1518,1),               *
               (EDVALA,1),(IBRFCH,1),(DUMMY224,1),(DUMMY225,1),        *
               (EDRSPK,1),(EDDEGA,1),(HISTAT,1),(ODDSTAT,1),           *
               (MSIREAD,1),(MSIWR,1),(DUMMY226,1),(MSITS,1),           *
               (DUMMY227,1),(MSIIOOP,1),(MSIRECC,1),(MSIUCWS,1)
         DSGEN (AIROFET,1),(AIROSTO,1),(AIROHRT,1),(AIROTS,1),         *
               (DUMMY228,1),(AIROVRD,1),(AIROECD,1),(AIROBS,1),        *
               (SPARE086,8),(MSCAIDL,1),(DUMMY229,1),(DUMMY230,1),     *
               (MSCCIP,1),(MSCWC,1),(MSCDR2C,1),(MSCAD25,1),           *
               (MSCBD25,1),(SPARE087,8)
         DSGEN (CONSR0,8),(CONSR1,8),(CONSR2,8),(CONSR3,8)
R1802    DS    4C
         DSGEN (R2802,1),(R2803,1),(R2804,1),(R2805,1),(R2806,1),      X
               (R2807,1),(R2808,1),(R2809,1),(R281A,1),                X
               (R2812,1),(R2813,1),(R2814,1),(R2815,1),(R2816,1),      X
               (R2817,1),(R2818,1),(R2820,1),(R2821,1),(R2822,1),      X
               (R2823,1),(R2824,1),                                    X
               (R2825,3),                                              X
               (R2829,5),(R2834,2),(R2836,1)
XQX      DSGEN                       (R2811,13,EQU,R281A),             X
               (R2811R,8,EQU,R281A),(R2820R,8,EQU,R2820),              X
               (R2829R,8,EQU,R2829)
         DS    3C
R3829    DS    2C
R1711    DS    7C
         DS    4C
SPARE127 DS    136C
         DSGEN (XBUS0P,1),(DUMMY231,1),(XBUS1P,1),(DUMMY232,1),        *
               (XBUS2P,1),(DUMMY233,1),(XBUS3P,1),(DUMMY234,1),        *
               (YBUS0P,1),(DUMMY235,1),(YBUS1P,1),(DUMMY236,1),        *
               (YBUS2P,1),(DUMMY237,1),(YBUS3P,1),(DUMMY238,1),        *
               (ZBUS0P,1),(DUMMY239,1),(ZBUS1P,1),(DUMMY240,1),        *
               (ZBUS2P,1),(DUMMY241,1),(ZBUS3P,1),(DUMMY242,1),        *
               (UBUSP,1),(DUMMY243,1),(VBUSP,1),(DUMMY244,1),          *
               (WBUSP,1),(DUMMY245,1),(FILREGP,1),(DUMMY246,1)
         DSGEN (DUMMY247,1),(DUMMY248,1),(RABUS2,1),(DUMMY249,1),      *
               (HOLDOFF,1),(DUMMY250,1),(RBAR12,1),(DUMMY251,1),       *
               (SPARE088,8),(EXTSW0P,1),(DUMMY252,1),(EXTSW1P,1),      *
               (DUMMY253,1),(EXTSW2P,1),(DUMMY254,1),(EXTSW3P,1),      *
               (DUMMY255,1),(SPARE089,8)
         DSGEN (AREG0P,1),(DUMMY256,1),(AREG1P,1),(DUMMY257,1),        *
               (AREG2P,1),(DUMMY258,1),(AREG3P,1),(DUMMY259,1),        *
               (BREG0P,1),(DUMMY260,1),(BREG1P,1),(DUMMY261,1),        *
               (BREG2P,1),(DUMMY262,1),(BREG3P,1),(DUMMY263,1),        *
               (CREG0P,1),(DUMMY264,1),(CREG1P,1),(DUMMY265,1),        *
               (CREG2P,1),(DUMMY266,1),(CREG3P,1),(DUMMY267,1),        *
               (DREG0P,1),(DUMMY268,1),(DREG1P,1),(DUMMY269,1),        *
               (DREG2P,1),(DUMMY270,1),(DREG3P,1),(DUMMY271,1)
         DSGEN (IOLSD0P,1),(DUMMY272,1),(IOLSD1P,1),(DUMMY273,1),      *
               (IOLSD2P,1),(DUMMY274,1),(IOLSD3P,1),(DUMMY275,1),      *
               (CPULS0P,1),(DUMMY276,1),(CPULS1P,1),(DUMMY277,1),      *
               (CPULS2P,1),(DUMMY278,1),(CPULS3P,1),(DUMMY279,1),      *
               (IOSAR0P,1),(DUMMY280,1),(IOSAR1P,1),(DUMMY281,1),      *
               (IOSAR2P,1),(DUMMY282,1),(IOSAR3P,1),(DUMMY283,1),      *
               (CPUSR0P,1),(DUMMY284,1),(CPUSR1P,1),(DUMMY285,1),      *
               (CPUSR2P,1),(DUMMY286,1),(CPUSR3P,1),(DUMMY287,1)
         DSGEN (DUMMY288,1),(DUMMY289,1),(IAR1P,1),(DUMMY290,1),       *
               (IAR2P,1),(DUMMY291,1),(IAR3P,1),(DUMMY292,1),          *
               (PSWSMP,1),(DUMMY293,1),(PSWKEYP,1),(DUMMY294,1),       *
               (PSWESMP,1),(DUMMY295,1),(RETENBL,1),(DUMMY297,1),      X
               (DUMMY298,1),(DUMMY299,1),(RBAR22,1),(DUMMY300,1),      *
               (DUMMY301,1),(DUMMY302,1),(RBAR32,1),(DUMMY303,1),      *
               (BS0P,1),(DUMMY304,1),(BS7,1),(DUMMY305,1),             *
               (IFTCHSP,1),(DUMMY306,1),(ALUFNRP,1),(DUMMY307,1)
         DSGEN (L12CTRP,1),(DUMMY308,1),(L1SS,1),(DUMMY309,1),         *
               (R12CTRP,1),(DUMMY310,1),(INABRR0,1),(DUMMY311,1),      *
               (SRADAD0,1),(DUMMY312,1),(BLKCONS,1),(DUMMY313,1),      *
               (CTRERR,1),(DUMMY314,1),(DUMMY315,1),(DUMMY316,1),      *
               (DUMMY317,1),(DUMMY318,1),(CPURA2,1),(DUMMY319,1),      *
               (GPSTL1P,1),(DUMMY320,1),(GPSTL3,1),(DUMMY321,1),       *
               (SPARE090,8)
         DSGEN (SPARE091,8),(SPARE092,8),(SPARE093,8),(CP1R0P,1),      *
               (DUMMY322,1),(CP1R2,1),(DUMMY323,1),(CP2R2,1),          *
               (DUMMY324,1),(DUMMY325,1),(DUMMY326,1)
         DSGEN (R0P1,1),(DUMMY327,1),(BRC01,1),(DUMMY328,1),           *
               (BBR11,1),(DUMMY329,1),(XYALU11,1),(DUMMY330,1),        *
               (R1P1,1),(DUMMY331,1),(MISC11,1),(DUMMY332,1),          *
               (Z11,1),(DUMMY333,1),(R2P1,1),(DUMMY334,1),             *
               (SPARE094,8),(SPARE095,8)
         DSGEN (SPARE096,64)
         DSGEN (SPARE097,64)
         DSGEN (SPARE098,64)
         DSGEN (SPARE099,64)
         DSGEN (SPARE100,64)
         DSGEN (AIRIN1E,1),(DUMMY335,1),(AIRO5E,1),(DUMMY336,1),       *
               (SAFETCH,1),(DUMMY338,1),(BUMPBIT,1),(DUMMY339,1),      X
               (CONSEOB,1),(DUMMY340,1),(CONSL2,1),(DUMMY341,1),       *
               (DUMMY342,1),(DUMMY343,1),(DUMMY344,1),(DUMMY345,1),    *
               (SPARE101,16)
         DSGEN (FALE0P,1),(DUMMY346,1),(FALE1P,1),(DUMMY347,1),        *
               (FALE2P,1),(DUMMY348,1),(FALE3P,1),(DUMMY349,1),        *
               (FALO0P,1),(DUMMY350,1),(FALO1P,1),(DUMMY351,1),        *
               (FALO2P,1),(DUMMY352,1),(FALO3P,1),(DUMMY353,1),        *
               (FAHE0P,1),(DUMMY354,1),(FAHE1P,1),(DUMMY355,1),        *
               (FAHE2P,1),(DUMMY356,1),(FAHE3P,1),(DUMMY357,1),        *
               (FAHO0P,1),(DUMMY358,1),(FAHO1P,1),(DUMMY359,1),        *
               (FAHO2P,1),(DUMMY360,1),(FAHO3P,1),(DUMMY361,1)
         DSGEN (DUMMY362,1),(DUMMY363,1),(BCUS1P,1),(DUMMY364,1),      *
               (BCUS2P,1),(DUMMY365,1),(BCUS3P,1),(DUMMY366,1),        *
               (DUMMY367,1),(DUMMY368,1),(ASARB1P,1),(DUMMY369,1),     *
               (ASARB2P,1),(DUMMY370,1),(ASARB3P,1),(DUMMY371,1),      *
               (INSNE,1),(DUMMY372,1),(C40B1E,1),(DUMMY373,1),         *