         TITLE 'IFCEI135 MODEL 135 CHANNEL EDIT'
         MACRO
&NAME    DSGEN
.*                            THIS MACRO GENERATES ONE DSECT WORD
.*                                 FORMATTED FOR THE SUBJECT LOG RECORD
.*                                 EACH OPERAND HAS TWO SUB LISTS. THE
.*                                 FIRST IS THE NAME OF THE LOG ITEM
.*                                 WHILE THE SECOND IS THE # OF BITS TO
.*                                 ALLOCATE FOR THIS ITEM. ITEMS MUST
.*                                 BE DEFINED CONTIGUOUSLY WITHOUT GAPS
.*                                 UNUSED BIT GROUPS MUST BE GIVEN
.*                                 DUMMY NAMES. THE NAMES PROVIDED FOR
.*                                 THE LOG ITEMS MAY THEN BE USED IN
.*                                 THE CONVERSION MACRO INSTRUCTIONS.
         GBLC &ITEM(1500)
         GBLA &ITEMNBR,&BITS(1500),&SHIFT(1500)
         LCLB  &ONLY1,&CTIND
         LCLA  &START1,&START2,&END1,&END2
         LCLC  &SYMBOL,&EQUSYM
         LCLA  &OP,&COUNT,&BYTE,&EQUCNT
         ACTR  100000
.START   AIF   (N'&SYSLIST(&OP+1) LT 3).LOOP
         AIF   ('&SYSLIST(&OP+1,3)' EQ 'EQU').LOOP     TEST FOR EQU
  AIF   ('&SYSLIST(&OP+1,3)' EQ '' AND '&SYSLIST(&OP+1,4)' EQ '').ERR1
  AIF   ('&SYSLIST(&OP+1,3)' EQ '' OR '&SYSLIST(&OP+1,4)' EQ '').ERR1
         AIF   ('&SYSLIST(&OP+1,3)' GT '&SYSLIST(&OP+1,4)').ERR3
&START1  SETA  &SYSLIST(&OP+1,3)        GET START COUNT OF 1
&START2  SETA  &SYSLIST(&OP+1,4)        GET FIRST END COUNT
         AGO   .SET2A                   BRANCH AROUND
.ERR1    MNOTE '**FIRST SYMBOL CONCATENATION INCOMPLETE**'
         MEXIT
.SET2A   AIF   ('&SYSLIST(&OP+1,5)' EQ ''AND '&SYSLIST(&OP+1,6)' EQ '' X
               ).SET2                   TEST FOR NO SECOND
  AIF   ('&SYSLIST(&OP+1,5)' EQ '' OR '&SYSLIST(&OP+1,6)' EQ '').ERR2
         AIF   ('&SYSLIST(&OP+1,5)' GT '&SYSLIST(&OP+1,6)').ERR3
&END1    SETA  &SYSLIST(&OP+1,5)        GET START COUNT OF 2
&END2    SETA  &SYSLIST(&OP+1,6)        GET END COUNT OF 2
         AGO   .LOOP
.SET2    ANOP
&ONLY1   SETB  1                        INDICATE ONLY ONE CONCATENATION
         AGO   .LOOP
.ERR2    MNOTE '**SECOND SYMBOL CONCATENATION INCOMPLETE**'
         MEXIT
.ERR3    MNOTE '**START GREATER THAN END CONCATENATION**'
         MEXIT
.LOOP    ANOP
&OP      SETA  &OP+1
         AIF   (&OP GT N'&SYSLIST).DONE      TEST IF ALL DONE
&ITEMNBR SETA  &ITEMNBR+1
         AIF   ('&SYSLIST(&OP,2)' NE '').OK1
         MNOTE '**NULL BIT COUNT FIELD**'
         MEXIT
.OK1     ANOP
&SYMBOL  SETC  '&SYSLIST(&OP,1)'
         AIF   ('&SYMBOL' NE '').OK
*              *****     LOG ITEM SYMBOL NOT PROVIDED     *****
         AIF   ('&SYSLIST(&OP,3)' NE 'EQU').CNT
         AGO   .START                   GET NEXT
.OK      AIF   (N'&SYSLIST(&OP) LT 3).NO3    TEST FOR OLD FORMAT
         AIF   ('&SYSLIST(&OP,3)' EQ 'EQU').EQU   TEST FOR EQU
         AIF   (&ONLY1).OK2             TEST FOR ONLY ONE CONCAT
&SYMBOL  SETC  '&SYMBOL.&START1.&END1'       GET 1 AND 2 CONCAT
         AGO   .NO3                     BRANCH AROUND
.OK2     ANOP
&SYMBOL  SETC  '&SYMBOL.&START1'        GET 1 CONCATENATED
.NO3     ANOP
&SYMBOL  EQU   *+&BYTE
&ITEM(&ITEMNBR) SETC '&SYMBOL'          GET LABEL IN GLOBAL
&BITS(&ITEMNBR) SETA &SYSLIST(&OP,2)
&SHIFT(&ITEMNBR) SETA &COUNT-&BYTE*8
.CNT     ANOP
&CTIND   SETB  1                        SET COUNT INDICATOR
&COUNT   SETA  &COUNT+&SYSLIST(&OP,2)
&BYTE    SETA  &COUNT/8
         AIF   (N'&SYSLIST(&OP) LT 3).START  TEST FOR OLD FORMAT
         AIF   (&ONLY1).TSTST           TEST FOR ONLY ONE CONCAT
         AIF   (&END1 EQ &END2).TSTST   TEST FOR SECOND END
&END1    SETA  &END1+1                  INCREMENT COUNT
&OP      SETA  &OP-1                    DECREMENT INCREMENT
         AGO   .LOOP                    GENERATE NEXT
.TSTST   ANOP
         AIF   (&START1 EQ &START2).LPDONE   TEST FOR END
         AIF   (&ONLY1).NSET1           TEST FOR ONLY ONE CONCAT
&END1    SETA  &SYSLIST(&OP,5)          RE-INIT SECOND START COUNT
.NSET1   ANOP
&OP      SETA  &OP-1                    DECREMENT INDEX
&START1  SETA  &START1+1                INCREMENT FIRST COUNT
         AGO   .LOOP                    GO DO NEXT
.LPDONE  ANOP
&ONLY1   SETB  0                        CLEAR INDICATOR
         AGO   .START                   GO TEST FOR MORE SUB-LISTS
.DONE    AIF   (&COUNT-&COUNT/8*8 NE 0).ERR  TEST FOR MULTIPLE OF EIGHT
         AIF   (&CTIND EQ 0).END        NO DS IF NO COUNT
&COUNT   SETA  &COUNT/8                 GET NUMBER OF BYTES
&NAME    DS    &COUNT.C
.END     MEXIT
.ERR     MNOTE '**BIT COUNT FLDS DO NOT TOTAL MULTIPLE OF 8**'
         MEXIT
.EQU     AIF   ('&SYSLIST(&OP,4)' NE '').EQU1     TEST FOR NULL LABEL
.ERR4    MNOTE '**EQU OPERAND OMITTED OR NOT FOUND**'
         MEXIT
.EQU1    AIF   (&SYSLIST(&OP,2) LT 16).EQU2  COUNT OVER FIFTEEN
*****               THE FOLLOWING STATEMENT                *****
*****     NUMBER OF BITS EXCEED 15 - DO NOT USE AS BIN     *****
.EQU2    ANOP
&EQUCNT  SETA  0                        CLEAR COUNTER
&EQUSYM  SETC  '&SYSLIST(&OP,4)'        GET EQU OPERAND
.EQULOP  ANOP
&EQUCNT  SETA  &EQUCNT+1                INCREMENT INDEX
         AIF   ('&ITEM(&EQUCNT)' EQ '&EQUSYM').EQUOUT  LABEL FOUND?
         AIF   (&EQUCNT EQ &ITEMNBR).ERR4    ALL TESTED?
         AGO   .EQULOP                  NO-GET NEXT
.EQUOUT  ANOP
&ITEM(&ITEMNBR) SETC '&SYMBOL'          GET LABEL NAME
&BITS(&ITEMNBR) SETA &SYSLIST(&OP,2)    GET NUMBER OF BITS
&SHIFT(&ITEMNBR) SETA &SHIFT(&EQUCNT)   GET SHIFT COUNT
&SYMBOL  EQU   &EQUSYM                  THIS SYMBOL EQUATED
         AGO   .START                   RETURN FOR NEXT
         MEND
         EJECT
*  LINE MACRO     LINE MACRO     LINE MACRO     LINE MACRO            *
         SPACE 2
         MACRO
&NAME    LINE  &DATA,&LABEL,&SKIP=
.*                            THIS MACRO ESTABLISHES THE MARGINS OR
.*                                 COLUMN SETTINGS FOR EACH LINE. IT
.*                                 GENERATES NECESSARY CARRIAGE CONTROL
.*                                 ENTRIES. LASTLY IT DETERMINES THE
.*                                 NUMBER OF ENTRIES ASSOCIATED WITH
.*                                 THE PREVIOUS LINE AND STORES THAT #
.*                                 INTO THE APPROPRIATE BYTE.
.*                            &DATA(1) - CHARACTER POSITION TO BEGIN
.*                                 DATA.
.*                            &DATA(2) - # OF SPACES BETWEEN SUCCESSIVE
.*                                 DATA COLUMN STARTING CHARACTERS.
.*                            &LABEL(1) - CHAR. POS. TO BEGIN LABELS.
.*                            &LABEL(2) - # SPACES BETWEEN LINE'S LABEL
.*                                 STARTING CHARACTERS.
.*                            &SKIP= - # OF LINES TO ADVANCE CARRIAGE
.*                                 TO BEGIN NEXT PRINTED LINE.
.*                            NEW ENTRIES ARE GENERATED ONLY WHEN
.*                                 NECESSARY. OMISSION OF ITEMS MEANS
.*                                 THEY HAVE NOT CHANGED SINCE PREVIOUS
.*                                 SETTINGS. A LINE MACRO IS REQUIRED
.*                                 FOR EACH PRINTED LINE. IF NO SETTING
.*                                 CHANGES ARE REQUIRED ALL OPERANDS
.*                                 ARE OMITTED IN WHICH CASE ONLY THE
.*                                 # OF ENTRIES FOR THE PREVIOUS LINE
.*                                 IS COMPUTED. THIS MACRO MUST BE THE
.*                                 FIRST MACRO INSTRUCTION ISSUED FOR
.*                                 THE SUBJECT LINE
         GBLA  &DB,&DT,&LB,&LT,&NRENTS
         GBLA  &LASTCC,&INITIAL
         GBLC  &NRENTSX
         GBLC  &CARRCON
         GBLB  &TEST
         LCLA  &S
&NAME    DS    0C
         AIF   (&INITIAL EQ 0).FIRSTLN
         LINEND
         AGO   .NTFIRST
.FIRSTLN ANOP
&NRENTSX SETC  'N&SYSNDX'
&INITIAL SETA  1
N&SYSNDX EQU   *
.NTFIRST ANOP
         DC    AL1(0)
         AIF   ('&DATA(1)' EQ '').CKDTABS
         AIF   (&DATA(1) EQ &DB).CKDTABS
&DB      SETA  &DATA(1)
         AGO   .AA
.CKDTABS AIF   ('&DATA(2)' EQ '').NCDATA
         AIF   (&DATA(2) EQ &DT).NCDATA
         AGO   .CC
.AA      AIF   ('&DATA(2)' EQ '').BB
         AIF   (&DATA(2) EQ &DT).BB
.CC      ANOP
&DT      SETA  &DATA(2)
.BB      DC    XL2'FFFE'
         DC    FL1'&DB'
         DC    FL1'&DT'
&NRENTS  SETA  &NRENTS+1
.NCDATA  ANOP
         AIF   ('&LABEL(1)' EQ '').CKLTABS
         AIF   (&LABEL(1) EQ &LB).CKLTABS
&LB      SETA  &LABEL(1)
         AGO   .AAA
.CKLTABS AIF   ('&LABEL(2)' EQ '').NCLABEL
         AIF   (&LABEL(2) EQ &LT).NCLABEL
         AGO   .CCC
.AAA     AIF   ('&LABEL(2)' EQ '').BBB
         AIF   (&LABEL(2) EQ &LT).BBB
.CCC     ANOP
&LT      SETA  &LABEL(2)
.BBB     DC    XL2'FFFF'
         DC    FL1'&LB'
         DC    FL1'&LT'
&NRENTS  SETA  &NRENTS+1
.NCLABEL ANOP
         AIF   ('&SKIP' NE '').CONT
         AIF   (&TEST EQ 0).NOCHANG
&S       SETA  &LASTCC
         AGO   .DEFAULT
.CONT    ANOP
         AIF   (&TEST EQ 0).AB
&S       SETA  &SKIP
.DEFAULT ANOP
         ORG   &CARRCON+3
         DC    AL.3(0),AL.2(&S),AL.3(1)
         ORG
&LASTCC  SETA  &S
&TEST    SETB  0
         AGO   .DD
.AB      AIF   (&SKIP EQ &LASTCC).NOCHANG
A&SYSNDX DC    XL2'FFFB'
         DC    AL.3(0),AL.2(&SKIP),AL.3(1)
         DC    FL1'9'
&LASTCC  SETA  &SKIP
&TEST    SETB  1
&CARRCON SETC  'A&SYSNDX'
&NRENTS  SETA  &NRENTS+1
.DD      ANOP
.NOCHANG ANOP
         MEND
         EJECT
*  BIN MACRO     BIN MACRO     BIN MACRO     BIN MACRO     BIN MACRO  *
         SPACE 2
         MACRO
         BIN
.*                                 &SYSLIST(&OP,1) - NAME OF LOG ITEM
.*                                      RECORD DSECT
.*                                 $SYSLIST(&OP,2) - NBR OF SPACES
.*                                      TO SKIP ON MULTIPLE
.*                                      PRINT OR NBR OF SPACES
.*                                      TO BACK UP FROM COLUMN FOR
.*                                      START OF PRINTING. THE LETTER
.*                                      B PRECEEDS THE NUMBER (B5) IF
.*                                      THE LATTER IS DESIRED. OMISSION
.*                                      OF THIS OPERAND FORCES OPTION 2
.*                                      WITH BACKUP SPACING EQUAL TO
.*                                 THE NUMBER OF BITS IN THE ITEM
.*                                 DEFINITION (VIA MACRO 'DSGEN').
.*                            A LIMIT OF 15 BITS IS IMPOSED FOR THE
.*                                 TOTAL NUMBER OF BITS TO PRINT.
         GBLC &ITEM(1500)
         GBLA &ITEMNBR,&BITS(1500),&SHIFT(1500),&NRENTS
         GBLC  &DSECT
         LCLB  &B,&SUB
         LCLA  &IBITS,&NDX,&ISHIFT,&K
         LCLA  &TEMP,&T,&OP
         LCLC  &S
         AIF   (K'&SYSLIST(1) EQ K'&SYSLIST(1,1)).LOOP
&SUB     SETB  1
.LOOP    ANOP
&OP      SETA  &OP+1
.LOOP1   ANOP
&NDX     SETA  &NDX+1
         AIF   ('&ITEM(&NDX)' EQ '&SYSLIST(&OP,1)').FOUND
         AIF   (&NDX LT &ITEMNBR).LOOP1
         MNOTE *,'YOU BLEW IT'
         ROUTINE DUM,SKIPPER
         MEXIT
.FOUND   ANOP
&ISHIFT  SETA  &SHIFT(&NDX)
&IBITS   SETA  &BITS(&NDX)
&T       SETA  &IBITS-1
&B       SETB  0
         AIF   (&SUB EQ 1).SUBA
         AIF   ('&SYSLIST(2)' EQ '').BACKUP
&K       SETA  K'&SYSLIST(2)
&B       SETB  ('&SYSLIST(2)'(1,1) EQ 'B')
&S       SETC  '&SYSLIST(2)'(&B+1,&K-&B)
         AGO   .SUBB
.SUBA    ANOP
         AIF   ('&SYSLIST(&OP,2)' EQ '').BACKUP
&K       SETA  K'&SYSLIST(&OP,2)
&B       SETB  ('&SYSLIST(&OP,2)'(1,1) EQ 'B')
&S       SETC  '&SYSLIST(&OP,2)'(&B+1,&K-&B)
.SUBB    ANOP
&T       SETA  &S
.BACKUP  ANOP
&NRENTS  SETA  &NRENTS+1
&TEMP    SETA  &ISHIFT
         AIF   (&IBITS NE 1 OR &B NE 0).BIN2
         DC    AL.12(&SYSLIST(&OP,1)-&DSECT),XL.4'&TEMP'
         AGO   .OUT
.BIN2    AIF   ('&SYSLIST(&OP,2)' NE '').BIN3
&B       SETB  1
.BIN3    ANOP
         DC    AL.12(&SYSLIST(&OP,1)-&DSECT),XL.4'C'
         DC    BL.1'&B',AL.7(&T),AL.4(&IBITS),FL.4'&ISHIFT'
.OUT     ANOP
&NDX     SETA  0
         AIF   (&SUB EQ 0).OUTA
         AIF   (&OP LT N'&SYSLIST).LOOP
.OUTA    ANOP
         MEND
         EJECT
*  HEX MACRO     HEX MACRO     HEX MACRO    HEXN MACRO     HEX MACRO  *
         SPACE 2
         MACRO
         HEX   &LOGITEM,&SKIP$OR,&BYTES
.*                            THIS MACRO FACILITATES GENERATION OF THE
.*                                 TABLE ENTRIES SPECIFYING HEX TYPE
.*                                 CONVERSIONS.
.*                            &LOGITEM - NAME OF DATA ITEM TO BE
.*                                 CONVERTED
.*                            &SKIP$OR - NUMBER OF SPACES TO SKIP ON
.*                                 MULTIPLE PRINT OR NBR OF SPACES TO
.*                                 BACK UP FROM COLUMN FOR START OF
.*                                 PRINTING. THE LETTER B PRECEEDS THE
.*                                 NUMBER (B8) IF THE LATTER OPTION IS
.*                                 DESIRED. OMISSION OF THIS OPERAND
.*                                 FORCES OPTION 2 WITH BACKUP SPACING
.*                                 EQUAL TO THE NUMBER OF BYTES SPECI-
.*                                 FIED BY THE NEXT OPERAND (TWICE THIS
.*                                 NUMBER IF SUFFIX IS EXPLICITLY OR
.*                                 IMPLICITLY B).
.*                            &BYTES - NUMBER OF TOTAL INPUT BYTES TO
.*                                 PROCESS. THIS NUMBER IS SUFFIXED
.*                                 WITH AN L,R, OR B TO STIPULATE
.*                                 PRINTING OF THE LEFT HALF, RIGHT
.*                                 HALF, OR BOTH HALVES OF THE BYTE
.*                                 RESPECTIVELY. OMISSION OF THIS
.*                                 OPERAND DEFAULTS TO B WITH THE NUM-
.*                                 BER OF BYTES EQUAL TO THE ITEM LNGTH
.*                            A NEW ENTRY IS GENERATED ONLY WHEN NECES-
.*                                 SARY. THIS MACRO MUST BE THE FIRST
.*                                 MACRO INSTRUCTION ISSUED FOR THE
.*                                 SUBJECT LINE(S).
         GBLC  &ITEM(1500),&DSECT
         GBLA  &ITEMNBR,&BITS(1500),&SHIFT(1500),&NRENTS
         LCLB  &B
         LCLA  &IBITS,&NDX,&ISHIFT,&K,&T,&CODE,&BYTESP
         LCLC  &S,&LETTER
.LOOP    ANOP
&NDX     SETA  &NDX+1
         AIF   ('&ITEM(&NDX)' EQ '&LOGITEM').FOUND
         AIF   (&NDX LT &ITEMNBR).LOOP
         MNOTE *,'LOG ITEM NOT DEFINED'
         MEXIT
.FOUND   ANOP
&ISHIFT  SETA  &SHIFT(&NDX)
&IBITS   SETA  &BITS(&NDX)
&CODE    SETA  1
&K       SETA  K'&BYTES
         AIF   (&IBITS-(&IBITS/4)*4 EQ 0).OK
         MNOTE *,'BIT LENGTH SPECIFICATION INCONSISTENT WITH CONTROL'
         MEXIT
.OK      AIF   ('&BYTES' EQ '').USEDEFN
&LETTER  SETC  '&BYTES'(&K,1)
&S       SETC  '&BYTES'(1,&K-1)
&BYTESP  SETA  &S
         AIF   ('&LETTER' EQ 'B').BOTH
         AIF   (&ISHIFT EQ 0 OR &ISHIFT EQ 4).OK2
.ERR     MNOTE *,'DATA NOT ALLIGNED ON HEX OR BYTE BOUNDARY'
         MEXIT
.USEDEFN ANOP
&BYTESP  SETA  &IBITS/8
.BOTH    AIF   (&ISHIFT NE 0).ERR
&CODE    SETA  3
&T       SETA  &BYTESP*2-1                                       XM5997
&S       SETC  '&T'
.OK2     AIF   (&ISHIFT EQ 0).L
&CODE    SETA  2
.L       ANOP
&B       SETB  1
         AIF   ('&SKIP$OR' EQ '').BACKUP
&K       SETA  K'&SKIP$OR
&B       SETB  ('&SKIP$OR'(1,1) EQ 'B')
&S       SETC  '&SKIP$OR'(&B+1,&K-&B)
.BACKUP  ANOP
&NRENTS  SETA  &NRENTS+1
         DC    AL.12(&LOGITEM-&DSECT),XL.4'A'
         DC    BL.1'&B',FL.7'&S',FL.4'&BYTESP',FL.4'&CODE'
.OUT     ANOP
         MEND
         EJECT
*  ROUTINE MACRO     ROUTINE MACRO     ROUTINE MACRO     ROUTINE MACRO*
         SPACE 2
         MACRO
&NAME    ROUTINE &LOGITEM,&RNAME
         GBLC  &DSECT,&CSECT
         GBLC  &ITEM(1500)
         GBLA  &SHIFT(1500),&ITEMNBR
         GBLA  &NRENTS
         LCLA  &ISHIFT,&NDX
.LOOP    ANOP
&NDX     SETA  &NDX+1
         AIF   ('&ITEM(&NDX)' EQ '&LOGITEM').FOUND
         AIF   (&NDX LT &ITEMNBR).LOOP
         MNOTE *,'LOG ITEM NOT DEFINED'
         MEXIT
.FOUND   ANOP
&ISHIFT  SETA  &SHIFT(&NDX)
&NAME    DC    AL.12(&LOGITEM-&DSECT),XL.4'D'
         DC    AL.4(&ISHIFT),AL.12(&RNAME-&CSECT)
&NRENTS  SETA  &NRENTS+1
         MEND
         EJECT
*  LABEL MACRO     LABEL MACRO     LABEL MACRO     LABEL MACRO        *
         SPACE 2
         MACRO
&NAME    LABEL &LABEL1,&LABEL2,&LABEL3,&LABEL4,&LABEL5,&LABEL6,        C
               &LABEL7,&LABEL8
.*                            THIS MACRO ALLOWS UP TO ACHT LABELS TO
.*                                 BE SPECIFIED FOR A GIVEN LINE. THE
.*                                 LABELS SHOULD BE ENCLOSED IN QUOTA-
.*                                 TION MARKS. THE COLUMN AND LINE END
.*                                 CONTROLS WILL BE INSERTED BY THE
.*                                 MACRO. OMITTED OPERANDS MEAN NO
.*                                 LABEL REQUIRED FOR RESPECTIVE
.*                                 COLUMN. THIS MACRO WILL ALSO ALERT
.*                                 THE PROGRAMMER TO EXACTLY WHERE THE
.*                                 TABLE MUST BE BROKEN IF NECESSARY
.*                                 TO AVOID EXCEEDING THE MAXIMUM LIMIT
         GBLC &LABELS(2000)
         GBLC  &LBL(100)
         GBLA  &LBLCTR(100)
         GBLA  &LABELNR
         GBLA  &NRENTS,&LPTR
         LCLC  &MARGIN,&TACK
         LCLC  &TEXT
         LCLA  &OP,&K,&START,&NRCHAR,&REMAIN
&MARGIN  SETC  '*'
         AIF   ('&NAME' EQ '').LOOPOUT
&LPTR    SETA  &LPTR+1
&LBL(&LPTR) SETC '&NAME'
&LBLCTR(&LPTR) SETA &LABELNR+1
.LOOPOUT ANOP
&OP      SETA  &OP+1
&K       SETA  K'&SYSLIST(&OP)
         AIF (&K GE 2).NORM
&K       SETA  2
.NORM    ANOP
&START   SETA  2
         AIF (&OP LT N'&SYSLIST).NOTLAST
&MARGIN  SETC  '$'
.NOTLAST ANOP
&NRCHAR  SETA  8
&TACK    SETC  ''
.LOOPIN  ANOP
&REMAIN  SETA  &K-&START
         AIF (&REMAIN GE 8).MORE
&TACK    SETC  '&MARGIN'
&NRCHAR  SETA  &REMAIN
.MORE    ANOP
&TEXT    SETC  ''
         AIF (&REMAIN EQ 0).ENDTEXT
&TEXT    SETC  '&SYSLIST(&OP)'(&START,&NRCHAR)
.ENDTEXT ANOP
&LABELNR SETA  &LABELNR+1
&LABELS(&LABELNR) SETC '&TEXT'.'&TACK'
&START   SETA  &START+8
         AIF ('&TACK' EQ '').LOOPIN
         AIF ('&TACK' EQ '*').LOOPOUT
         MEND
         SPACE 2
         MACRO
         LSTART
.*                            THIS MACRO IS ISSUED WHEN THE LABEL AREA
.*                                 OF THE TABLE IS TO BEGIN.
         GBLC &LABELS(2000)
         GBLA  &LABELNR
         GBLC  &LBL(100)
         GBLA  &LBLCTR(100)
         LCLA  &NDX,&CTR
         LINEND
&CTR     SETA  1
.LOOP    ANOP
&NDX     SETA  &NDX+1
         AIF   (&LBLCTR(&CTR) NE &NDX).NOLBL
&LBL(&CTR) DC  C'&LABELS(&NDX)'
&CTR     SETA  &CTR+1
         AGO   .LOOPCTL
.NOLBL   ANOP
         DC    C'&LABELS(&NDX)'
.LOOPCTL AIF   (&NDX LT &LABELNR).LOOP
         MEND
         SPACE 2
         MACRO
         LINEND
.*                            THIS MACRO IS USED ONLY BY THE LINE
.*                                 MACRO TO SET THE NUMBER OF ENTRIES
.*                                 ASSOCIATED WITH EACH LINE.
         GBLA  &NRENTS
         GBLC &NRENTSX
         ORG   &NRENTSX
         DC    FL1'&NRENTS'
         ORG
&NRENTS  SETA  0
B&SYSNDX EQU   *
&NRENTSX SETC  'B&SYSNDX'
         MEND
         SPACE 2
         MACRO
         PARITY &ENTRY,&REPEAT,&SPACES,&PBITS=,&DISP=,&OFFBYTE=
         GBLC  &ITEM(1500),&DSECT
         GBLA  &SHIFT(1500),&ITEMNBR
         LCLA  &IBITS,&NDX,&ISHIFT
         DC    AL4(&ENTRY)
         DC    AL1(&REPEAT)
         DC    AL1(&SPACES)
         AIF   ('&PBITS' EQ '').HARDCD
.LOOP    ANOP
&NDX     SETA  &NDX+1
         AIF   ('&ITEM(&NDX)' EQ '&PBITS').FOUND
         AIF   (&NDX LT &ITEMNBR).LOOP
         MNOTE *,'PARITY GROUP NOT FOUND'
         MEXIT
.FOUND   ANOP
&ISHIFT  SETA  &SHIFT(&NDX)
         DC    AL.12(&PBITS-&DSECT),AL.4(&ISHIFT)
         AGO   .OUT
.HARDCD  ANOP
&ISHIFT  SETA  &OFFBYTE
         DC    AL.12(&DISP),AL.4(&ISHIFT)
.OUT     ANOP
         MEND
         GBLC  &DSECT,&CSECT
&CSECT   SETC  'IFCEI135'
&DSECT   SETC  'CI135'
IFCEI135 CSECT
CI135    DSECT
         DS    0F
         DSGEN (XKEY,8),(XRELN,8),(XSWS8,9),(XSWS9,1),(XSWS10,1),      C
               (XSWS11,1),                                             C
               (XSWS12,1),(XSWS13,1),(XSWS14,1),(XSWS15,1)
         DSGEN (XDUM1,32)
         DSGEN (XDATE,32)
         DSGEN (XTIME,32)
         DSGEN (XDUM2,8),(XSER,24)
         DSGEN (XMOD,16),(MCEL,16)
         DSGEN (XJOBN,64)
         DSGEN (XAIO1,16),(XAIO2,16),(XAIO3,16),(XAIO4,16)
         DSGEN (XAIO5,16),(XAIO6,16),(XAIO7,16),(XAIO8,16)
         DSGEN (XFCCWCC,8),(XFCCWDA,24),(XFCCWFL,8),(XFCCW0,8),        C
               (XFCCWCT,16)
         DSGEN (XCSWK,8),(XCSWCA,24)
         DSGEN (XCSWUS0,1),(XCSWUS1,1),(XCSWUS2,1),(XCSWUS3,1),        *
               (XCSWUS4,1),(XCSWUS5,1),(XCSWUS6,1),(XCSWUS7,1),        *
               (XCSWCS0,1),(XCSWCS1,1),(XCSWCS2,1),(XCSWCS3,1),        *
               (XCSWCS4,1),(XCSWCS5,1),(XCSWCS6,1),(XCSWCS7,1),        *
               (XCSWCT,16)
         DSGEN (XECSW,32)
         DSGEN (XDEVT1,16),(XDEVT2,16)
         DSGEN (XCHID,8),(XCUA,24)
         DSGEN (XMPIN,32)
         DSGEN (XDUM3,32)                                       XA04755
         DSGEN (MCHRG00,1),(MCHRG01,1),(MCHRG02,1),(MCHRG03,1),        X
               (MCHRG04,1),(MCHRG05,1),(MCHRG06,1),(MCHRG07,1),        X
               (MCHRG08,1),(MCHRG09,1),(MCHRG10,1),(MCHRG11,1),        X
               (MCHRG12,1),(MCHRG13,1),(MCHRG14,1),(MCHRG15,1),        X
               (MCHRG16,1),(MCHRG17,1),(MCHRG18,1),(MCHRG19,1),        X
               (MCHRG20,1),(MCHRG21,1),(MCHRG22,1),(MCHRG23,1),        X
               (MCHRG24,1),(MCHRG25,1),(MCHRG26,1),(MCHRG27,1),        X
               (MCHRG28,1),(MCHRG29,1),(MCHRG30,1),(MCHRG31,1)
         DSGEN (BUFADRG,16)
         DSGEN (ZONER00,1),(ZONER01,3),(ZDUMY,1),(ZONER03,3),  @XA06108X
               (SAREG00,24)
SEL135   DSGEN (BFCTRG00,1),(BFCTRG01,1),(BFCTRG02,1),(BFCTRG03,1),    X
               (BFCTRG04,1),(BFCTRG05,1),(BFCTRG06,2),                 X
               (BFCTRG08,1),(BFCTRG09,1),(BFCTRG10,1),(BFCTRG11,1),    X
               (BFCTRG12,1),(BFCTRG13,3),                              X
               (BFCTRG16,1),(BFCTRG17,1),(BFCTRG18,1),(BFCTRG19,1),    X
               (BFCTRG20,1),(BFCTRG21,1),(BFCTRG22,1),(BFCTRG23,1),    X
               (BFCTRG24,1),(BFCTRG25,1),(BFCTRG26,1),(BFCTRG27,1),    X
               (BFCTRG28,1),(BFCTRG29,1),(BFCTRG30,1),(BFCTRG31,1)
         DSGEN (DUMMY00,16)
         DSGEN (CHANTG00,1),(CHANTG01,1),(CHANTG02,1),(CHANTG03,1),    X
               (CHANTG04,1),(CHANTG05,1),(CHANTG06,1),(CHANTG07,1),    X
               (CHANTG08,1),(CHANTG09,1),(CHANTG10,1),(CHANTG11,1),    X
               (CHANTG12,1),(CHANTG13,1),(CHANTG14,1),(CHANTG15,1),    X
               (CHANTG16,1),(CHANTG17,1),(CHANTG18,1),(CHANTG19,1),    X
               (CHANTG20,1),(CHANTG21,1),(CHANTG22,1),(CHANTG23,1),    X
               (CHANTG24,1),(CHANTG25,1),(CHANTG26,1),(CHANTG27,1),    X
               (CHANTG28,1),(CHANTG29,1),(CHANTG30,1),(CHANTG31,1)
         DSGEN (CHCTRG00,1),(CHCTRG01,1),(CHCTRG02,1),(CHCTRG03,1),    X
               (CHCTRG04,1),(CHCTRG05,1),(CHCTRG06,1),(CHCTRG07,1),    X
               (CHCTRG08,1),(CHCTRG09,1),(CHCTRG10,1),(CHCTRG11,1),    X
               (CHCTRG12,1),(CHCTRG13,1),(CHCTRG14,1),(CHCTRG15,1),    X
               (CHCTRG16,1),(CHCTRG17,1),(CHCTRG18,1),(CHCTRG19,1),    X
               (CHCTRG20,1),(CHCTRG21,1),(CHCTRG22,1),(CHCTRG23,1),    X
               (CHCTRG24,1),(CHCTRG25,1),(CHCTRG26,1),(CHCTRG27,1),    X
               (CHCTRG28,1),(CHCTRG29,1),(CHCTRG30,1),(DUMMY,1)
         DSGEN (CHANCK0,1,0,7),(DUM,8,0,2)                      XA00642
         DSGEN (CHK0,16,EQU,MCHRG00),(CHK1,16,EQU,MCHRG16)
         EJECT
*
IFCEP000 DSECT
         DS    CL6
         DS    CL1
         DS    CL1
XPRTBUF  DS    15CL8
         DS    5CL8
         DS    3CL8
         DS    CL8
XSWITCH  DS    CL4
*
*      ROUTINE BRANCH TABLE
*
         DS    CL112
*
*      LOAD MODULE ENTRYPOINT NAMES
*
         DS    CL56
*
*      READ/WRITE BUFFER
*
XMCH     DC    XL2'00'
XCNTBUF  DS    CL8
XKEYBUF  DS    CL2
XDADBUF  DS    197CL8
XDUMMY   DS    CL1
         SPACE 3
ERPIB    DSECT                                                    19032
SOFWFLGS DS    CL1                 PROGRAM FLAGS FIELD IN ERPIB   19032
PROBERR  DS    CL1                 PROBABLE SOURCE OF ERROR FIELD 19032
VALFLAGS DS    CL1                 VALIDITY FLAGS FIELD           19032
CMPLBITS DS    CL1                 TERM AND RETRY CODES FIELD     19032
MPINFOFD DS    CL2                 MULTI-PROCESSING INFO FIELD    19032
CHSMS    DS    CL2                 CHANNEL STATUS FIELD           19032
         EJECT
IFCEI135 CSECT
ENTRYPTR DC    A(FORMAT1)
TABLNAME DC    CL8'IFCEI135'
REG9     DS    F
LP       DS    F
         SPACE 2
SPCLCODE EQU   *
SKIPPER  EQU   *
         BR    14
R0       EQU   0
R1       EQU   1
R2       EQU   2
R3       EQU   3
R4       EQU   4
R5       EQU   5
R6       EQU   6
R7       EQU   7
R8       EQU   8
R9       EQU   9
R10      EQU   10
R11      EQU   11
R12      EQU   12
R13      EQU   13
R14      EQU   14
R15      EQU   15
****    ADDRESS EQUATES
AD0      EQU   0
AD1      EQU   1
AD4      EQU   4
AD12     EQU   12
AD13     EQU   13
AD14     EQU   14
AD15     EQU   15
AD16     EQU   16
AD20     EQU   20
AD37     EQU   37
AD41     EQU   41
AD45     EQU   45
AD55     EQU   55
AD63     EQU   63
AD69     EQU   69
AD108    EQU   108
***   LENGTH EQUATES
L0       EQU   0
L1       EQU   1
L2       EQU   2
L3       EQU   3
L4       EQU   4
L5       EQU   5
L6       EQU   6
L7       EQU   7
L8       EQU   8
L9       EQU   9
L10      EQU   10
L12      EQU   12
L13      EQU   13
L14      EQU   14
L15      EQU   15
L16      EQU   16
L19      EQU   19
L20      EQU   20
L21      EQU   21
L22      EQU   22
L24      EQU   24
L26      EQU   26
L29      EQU   29                                              @XA06108
L31      EQU   31
L32      EQU   32
L40      EQU   40
L60      EQU   60
***   CONDITION CODE EQUATES
CC1      EQU   1
CC2      EQU   2
CC4      EQU   4
CC7      EQU   7
CC8      EQU   8
****    NUMERICAL EQUATES
X01      EQU   X'01'
X02      EQU   X'02'
X04      EQU   X'04'
X08      EQU   X'08'
X09      EQU   X'09'
X10      EQU   X'10'
X20      EQU   X'20'
X30      EQU   X'30'
X40      EQU   X'40'
X80      EQU   X'80'
HEXBF    EQU   X'BF'
HEX48    EQU   X'48'
HEX02    EQU   X'02'
HEX04    EQU   X'04'
HEX08    EQU   X'08'
HEX10    EQU   X'10'
HEX20    EQU   X'20'
HEX40    EQU   X'40'
HEX22    EQU   X'22'
HEX28    EQU   X'28'
HEX2A    EQU   X'2A'
HEX29    EQU   X'29'
HEX01    EQU   X'01'
HEX00    EQU   X'00'
DIV1     EQU   X'0A'
DIV2     EQU   X'0C'
K1       EQU   1
K3       EQU   3
***********************************************************************
*                                                                     *
*                                                                     *
*    ROUTINE TO PICK UP THE CHANNEL ADDRESS WHICH IS NOT ON A BYTE    *
*   BOUNDRY, CONVERT IT TO HEX AND STORE IT IN THE PRINT BUFFER.      *
*                                                                     *
*                                                                     *
***********************************************************************
         SPACE 2
@CHANADR DS    0F
         USING *,15
         STM   14,12,12(13)        SAVE THE REGS
         MVC   MYWORK(1),0(4)
         NI    MYWORK,X'07'
         OI    MYWORK,X'F0'
         S     R3,ONE
         MVC   0(1,3),MYWORK
         LM    14,12,12(13)        RESTORE THE REGS
         BR    14                  RETURN
*
         DROP  R15
         USING IFCEI135,R9
SETSOURC STM   R5,R8,XSAVE              SAVE REGS
         MVC   L0(L3,R3),CCCH           MOVE CHANNEL RECORD
         CLI   L0(R4),HEX20             TEST REC SOURCE
         BE    RETURN
         MVC   L0(L3,R3),MCHH           MOVE MCH RECORD
         B     RETURN                   RETURN
*
CONVREL  STM   R5,R8,XSAVE              SAVE WORK REGS
         SR    R6,R6                    CLEAR R6
         IC    R6,L0(R4)                PICK UP REL & SYS VALUES
         SRDL  R6,L5                    SAVE REL NO IN R7
        SLL   R6,L2                    MULTIPLY SYS VALUE BY 4
         L     R8,XLABELP               PICK UP LABEL POINTER
         LA    R6,RELTAB(R6)            INDEX INTO TABLE OF SYSTEMS
         MVC   L0(L4,R8),L0(R6)         MOVE SYSTEM NAME INTO LABEL
         SR    R6,R6                    CLEAR R6
         SLDL  R6,L5                    RETREIVE REL NO.
         LTR   R6,R6                    IS IT ZERO
         BZ    NOREL                    BR-YES
         CVD   R6,WORK                  CONVERT IT
         UNPK  L0(L2,R3),WORK+L6(L2)    UNPACK IT INTO PRINT BUFF
         MVZ   L1(L1,R3),L0(R3)         MOVE ON PROPER ZONE
         B     RETURN                   EXIT
NOREL    MVC   L0(L4,R3),NONE           MOVE IN NONE FOR REL
         B     RETURN
*
SETPGMN  MVC   L0(L8,R3),L0(R4)         MOVE 8 CHAR NAME TO BUFF
         BR    R14
*
SPACER2  LA    R3,L2(R3)                BUMP R3 PTR BY 2
         BR    R14
*
SETHEX   STM   R5,R8,XSAVE              SAVE REGS
         LA    R8,CHARS                 CHAR TABLE PTR
         IC    R7,L0(R4)                PICK UP CHAR
         SLL   R7,L24                   MOVE IT TO HI POS
         SR    R6,R6
         SLDL  R6,L4                    MOVE 4 BITS TO R6
         AR    R6,R8                    INDEX FOR CHARS
         MVC   L0(L1,R3),L0(R6)         MOVE CHAR TO BUFF
         SR    R6,R6
         SLDL  R6,L4                    MOVE LAST 4 BITS TO R6
         AR    R6,R8                    INDEX INTO TABLE