         MACRO
&NAME    VTOC  &REQ,&ADDR .
         GBLC  &VTOCNAM .
.* SEE 'VTOCACCS' FOR DOCUMENTATION ON THIS MACRO
.*  AUTHOR         DARRELL D. WILCOX
.*  INSTALLATION   KING COUNTY SYSTEMS SERVICES
.*                 ROOM E-208 KING COUNTY COURTHOUSE
.*                 THIRD AT JAMES STREETS
.*                 SEATTLE, WA  98104
.*  IF MODIFICATIONS OR CORRECTIONS ARE MADE, I WOULD GREATLY
.*       APPRECIATE GETTING A COPY OF THEM.
         AIF   ('&REQ' EQ 'GET').GET
         AIF   ('&REQ' EQ 'GETBYCHR').GETBCHR
         AIF   ('&REQ' EQ 'OPEN').OPEN
         AIF   ('&REQ' EQ 'OPENWKEY').OPENKEY
         AIF   ('&REQ' EQ 'CLOSE').CLOSE
         MNOTE *,' '
         MNOTE *,' '
         MNOTE 8,'INVALID REQUEST TYPE - MUST BE OPEN, OPENWKEY, GET, GX
               ETBYCHR, OR CLOSE'
         MNOTE *,' '
         MNOTE *,' '
         MEXIT
.OPEN    ANOP
&NAME    LA    0,1 .                    SET R0='OPEN REQ.' CODE
         AGO   .DONE .
.OPENKEY ANOP
&NAME    LA    0,2 .                    SET R0='OPENWKEY REQ.' CODE
         AGO   .DONE .
.GET     ANOP
&NAME    LA    0,3 .                    SET R0='GET REQ.' CODE
         AGO   .FINISH .
.GETBCHR ANOP
&NAME    LA    0,4 .                    SET R0='GETBYCHR REQ.' CODE
         AGO   .DONE .
.CLOSE   ANOP
&NAME    LA    0,5 .                    SET R0='CLOSE REQ.' CODE
         AGO   .FINISH .
.DONE    ANOP
         AIF   ('&ADDR' EQ '').ASSUME
         AIF   ('&ADDR'(1,1) NE '(').NOREG
         AIF   ('&ADDR' EQ '(1)').FINISH
         LR    1,&ADDR(1) .                 PUT ADDRESS INTO REGISTER 1
         AGO   .FINISH .
.ASSUME  ANOP
         MNOTE 4,'ADDRESS NOT CODED;  ASSUMED IN REGISTER ONE'
         AGO   .FINISH .
.NOREG   ANOP
         LA    1,&ADDR .                LOAD ADDRESS INTO REGISTER 1
.FINISH  ANOP
         AIF   ('&VTOCNAM' NE '').GOTNAME
&VTOCNAM SETC  'VTOC&SYSNDX' .
         CNOP  2,4 .                    ALIGN HALF-AND-NOT-FULL WORD
         LA    14,*+22 .                LOAD RETURN ADDRESS
&VTOCNAM L     15,*+14 .                LOAD MODULE ENTRY POINT ADDRESS
         LTR   15,15 .                  WAS MODULE INCLUDED/Q
         BCR   7,15 .                   BRANCH TO MODULE IF INCLUDED
         LA    15,40 .                  SET RETURN CODE TO NOT INCLUDED
         BR    14 .                     RETURN TO USER
         DC    V(VTOCACCS) .            MODULE ENTRY POINT ADDRESS
         MEXIT
.GOTNAME ANOP
         BAL   14,&VTOCNAM .            GO TO COMMON CODE FOR ACCESS
         MEND
