)ATTR
       @   TYPE(OUTPUT) INTENS(LOW) CAPS(OFF) JUST(LEFT)
       ^   TYPE(OUTPUT) INTENS(HIGH) CAPS(OFF) JUST(LEFT)
       !   TYPE(INPUT) INTENS(HIGH) CAPS(ON) JUST(LEFT) PAD('_')
)BODY
+--------------------% Display of Your Bulletins +----------------------
%Command ===>_zcmd                                           %Scroll ===
%
+Primary Command:%New+to generate a new Bulletin
+Line Command:%P+to Print,%S+Update Text,%C+to Change All Info,%D+to Del
+             %R+to Clone Bulletin       %T+to Transfer to Tech Pubs or
+
%Sel  Date       Type Subject
+-----------------------------------------------------------------------
)Model
!z+  ^z         ^z   ^z
)Init
  &VARS = '(SEL BLTNDATE BLTNTYPE BLTNSUBJ)'
  &NAMT = CSR
)Proc
 VER (&ZCMD,LIST,NEW)
 VER (&SEL,LIST,D,P,S,C,R,T)
)End
