)ATTR
 @ TYPE(OUTPUT) INTENS(LOW)
)BODY
+ ----------------------- Distribution Table &TABLE   ------------------
+Enter Option:_OPT       +Add Sort Cancel or Save            %Scroll ===
%      you MUST Specifically SAVE this table if you change/create it.
+Selection options:  S - Select to Display/Change  D - Delete
+
+Sel  Name                 Div  Dept  Group  Bldg Floor  Mail
+
)MODEL
_Z+  _Z                   _Z   _Z    _Z     _Z   _Z     _Z
)INIT
 .CURSOR = OPT
 &OPT = &Z
 &SELECT = &Z
 &VARS = '(SELECT NAME FDS DEPT GROUP BLDG FLR MAIL)'
 &AMT = PAGE
)END
