)ATTR
     @ TYPE(TEXT)  INTENS(HIGH)  SKIP(ON)
     _   TYPE(INPUT) INTENS(HIGH) CAPS(OFF) JUST(LEFT)
     $   TYPE(INPUT) INTENS(HIGH) CAPS(ON) JUST(LEFT)
)BODY
+----------------@ TSO/E XMIT Nick Names File Build +-------------------
@Command ===>_ZCMD
_DEBUG
+  Enter Nick Name@===>$NICK    @
+
+  Enter Node Name for this user@===>$NODE    @
+
+  Enter Userid for this user@===>$USERID  @    Not required if List use
+
+  Enter the user's Name@===>_NAME                          +
+
+  Enter List of Nick Names to receive the Transmit for this Nick Name:
+  @===>_NICK1   @   ===>_NICK2   @   ===>_NICK3   @   ===>_NICK4   @
+  @===>_NICK5   @   ===>_NICK6   @   ===>_NICK7   @   ===>_NICK8   @
+  @===>_NICK9   @   ===>_NICK10  @   ===>_NICK11  @   ===>_NICK12  @
+  @===>_NICK13  @   ===>_NICK14  @   ===>_NICK15  @   ===>_NICK16  @
+
)INIT
 .CURSOR = NICK
 &NAME   = &Z
 &USERID = &Z
 &NICK1  = &Z
 &NICK2  = &Z
 &NICK3  = &Z
 &NICK4  = &Z
 &NICK5  = &Z
 &NICK6  = &Z
 &NICK7  = &Z
 &NICK8  = &Z
 &NICK9  = &Z
 &NICK10 = &Z
 &NICK11 = &Z
 &NICK12 = &Z
 &NICK13 = &Z
 &NICK14 = &Z
 &NICK15 = &Z
 &NICK16 = &Z
)PROC
 VER (&NICK,NONBLANK)
 IF (&NICK1 ^= &Z)
     &USERID = &Z
     &NAME   = &Z
     &NODE   = &Z
 IF (&NICK1 = &Z)
     VER (&NODE,NONBLANK)    VER (&NODE,NAME)
     VER (&USERID,NONBLANK)  VER (&USERID,NAME)
     VER (&NAME,NONBLANK)
)END
