)ATTR
  ^ TYPE(INPUT) INTENS(NON)
)BODY
%RSVUDA2 --------------------  DATA SET UTILITY  -----------------------
%OPTION  ===>_ZCMD
%
%   A+- Allocate new data set                %C+- Catalog data set
%   R+- Rename entire data set               %U+- Uncatalog data set
%   D+- Delete entire data set               %S+- Data set information (
%   blank+- Data set information
+
+ISPF LIBRARY:
+   PROJECT%===>_PRJ0    +
+   GROUP  %===>_LIB0    +
+   TYPE   %===>_TYP0    +
+
+OTHER PARTITIONED OR SEQUENTIAL DATA SET:
+   DATA SET NAME %===>_DSN
+   VOLUME SERIAL %===>_VOL   +  (If not cataloged, required for option
+
+DATA SET PASSWORD%===>^PSWD    +(If password protected)
)INIT
  .HELP = ISR32000
  IF (&ROCUDA = YES)
    VER(&ROCUAOPT,NB,LIST,S,I,R,U,C,D,MSG=RSVT030)
    &OPT = &ROCUAOPT
    &DSN = &R$DSN
    IF (&R$VOL ^= &Z)
      &VOL = &R$VOL
  &ZCMD = TRANS(&OPT N,R E,D I,' ' V,U *,*)
  IF ( &DSN = ' ' )
    &VOL = &Z
  IF ( &DSN ^= ' ' )
    .CURSOR = ZCMD
  IF ( .CURSOR = ' ' )
    .CURSOR = ZCMD
  IF (&ROCUDA = YES)
    IF (&BEFORE = &Z)
      &IFLAG = NO
    IF (&BEFORE = YES)
      &IFLAG = YES
    IF (&IFLAG = NO)
      &BEFORE=YES
      VPUT BEFORE
    IF (&IFLAG = YES)
      &BEFORE = &Z
      &ROCUDA = NO
      VPUT (BEFORE ROCUDA)
      .RESP = END
)PROC
  &OPT = TRANS(&ZCMD N,# E,# I,# V,# R,N D,E ' ',I U,V *,*)
  VER(&OPT,LIST,A,N,E,I,C,V,S)
  IF ( &OPT = C )
    VER(&VOL,NB)
  IF ( &OPT = V )
    IF (&VOL ^= ' ' )
      .MSG = ISRU230
  IF ( &DSN = ' ' )
    VER(&PRJ0,NB)
    VER(&LIB0,NB)
    VER(&TYP0,NB)
    IF ( &OPT ^= C )
      IF (&VOL ^= ' ' )
        .MSG = ISRU232
  VPUT ( PRJ0 LIB0 TYP0 PSWD ) PROFILE
)END
