%--------------------Set Terminal Characteristics ----------------------
%COMMAND ===>_ZCMD
+
+
+
+Terminal Type:              %===>_TERM  + M2 or M4 or M5
+                                        + or blank = display
+
+
)INIT
 .HELP   =  TSETSCRN
 .CURSOR =  TERM
)PROC
 VER (&TERM,LIST,M2,M4,M5)
 IF (&TERM = M2)
     &LINES = 24
     &COLS  = 80
 IF (&TERM = M4)
     &LINES = 43
     &COLS  = 80
 IF (&TERM = M5)
     &LINES = 27
     &COLS  = 132
 IF (&TERM = ' ')
     &DISP = DISP
 IF (&TERM ^= ' ')
     &DISP = SETIT
 &OPT = DOIT
 &SEL = TRANS(TRUNC(&OPT,' ')
              DOIT   ,'CMD(%SETSCRN) '
              ' '   ,' '
              *     ,?)
)END
