+--------------% Southwestern Computing Center Shift Reports +----------
%Option ===>_OPT
+
+    Enter desired Shift Report review option:  C = Current
+                                               H = Historical review
+
+
_DEBUG
)INIT
 .CURSOR = OPT
 &OPT = &Z
)PROC
 &OPT = TRANS(TRUNC(&OPT,1) C,C H,H *,*)
 VER (&OPT,LIST,NB,C,H)
 &ZSEL = 'CMD(%SHIFTSWC &OPT)'
)END
