%------------- SMP LIST CRQ (Conditional Requisite Queue data set) -----
%COMMAND ===>_ZCMD
+
+LIST data set: &INDEX..SMP&DATASET
+
+Operands to restrict output (* for no restriction):
+    Entry      %===>_OPT   +
+    Entry id(s)%===>_IDS
+
+Valid entries:
%    SYSMOD +- System modification
%    FMID   +- Function modification identifier
)INIT
 &ENTRY = TRANS(&ENTRY ' ',SYSMOD *,*)
 &OPT   = TRANS(&OPT   ' ',&ENTRY *,*)
)PROC
 VER (&OPT,NONBLANK)
 &ENTRY = &OPT
 VER (&IDS,NONBLANK)
 &SEL = TRANS(&OPT
              SYSMOD,'CMD(%SMPEXEC)'
              FMID  ,'CMD(%SMPEXEC)'
              ' '   ,' '
              *     ,?)
 IF (&IDS = *)
     &IDS = ' '
)END
