)BODY DEFAULT(%Ö_)
%------------------- SMP LIST SCDS (Save Control Data Set) -------------
%COMMAND ===>_ZCMD
Ö
ÖLIST data set: &INDEX..SMP&DATASET
Ö
ÖOperands to restrict output (* for no restriction):
Ö    Entry      %===>_OPT   Ö
Ö    SYSMOD(s)  %===>_IDS
Ö
ÖValid entry:
Ö    SYSMOD - System modification
)INIT
 &ENTRY = TRANS(&ENTRY ' ',SYSMOD *,*)
 &OPT   = TRANS(&OPT   ' ',&ENTRY *,*)
)PROC
 &ENTRY = &OPT
 VER (&IDS,NONBLANK)
 &SEL = TRANS(&OPT
              SYSMOD,'CMD(%SMPEXEC)'
              '*'   ,'CMD(%SMPEXEC)'
              ' '   ,' '
              *     ,?)
 IF (&IDS = *)
     &IDS = ' '
)END
