*          DATA SET PGRBDG01   AT LEVEL 002 AS OF 03/20/80
*          DATA SET PGRBDG01   AT LEVEL 001 AS OF 03/12/78
         TITLE 'PRGARS01 - BJ'
         MACRO
&NAME    PRIME &REG=3,&SAVE=
.**********************************************************************
.*  PRIME MACRO PROVIDES BASE REGISTER INITILIZATION AND STANDARD
.*    OS ENTRY CODING.  REG MAY BE A SINGLE OPERAND OR MULTIPLE
.*   OPERANDS.  THESE OPERANDS MAY BE REGISTERS OR DATA NAMES THAT WILL
.*   BE EQUATED TO REGISTERS.  IF NO REG FIELDS ARE SUPPLIED REGISTER
.*   3 WILL BE ESTABLISHED AS THE BASE.  SAVE CAN BE PROVIDED AS A
.*   LABEL OR ORDINARY OR SPECIAL REGISTER NOTATION.  IF SPECIAL
.*   REGISTER NOTATION IS USED, USE REGISTER 1.  IF PROVIDED
.*   BY ANY METHOD, THE USER MUST PROVIDE AN 18F AREA FOR USE AS A
.*   SAVE AREA.   IF SAVE IS NOT PROVIDED, THE MACRO EXPANSION WILL
.*   OBTAIN AN AREA WITH A GETMAIN MACRO.
.*
.*  EXAMPLES-
.*
.*       PRIME REG=12,SAVE=SAVEAREA
.*       PRIME REG=(R3,R4,R5),SAVE=(R1)
.*       PRIME SAVE=(1)
.*
.**********************************************************************
         LCLC  &NCON,&A
         LCLA  &NCNT
&A       SETC  '&SYSNDX'
&NCON    SETC  '&NAME'
         AIF   ('&NAME' NE '').SETINC
&NCON    SETC  'STRT&SYSNDX'
.SETINC  ANOP
&NCNT    SETA  1
***********************************************************************
*  STARDARD OS ENTRY CODE
***********************************************************************
.LOOP1   ANOP
         USING &NCON.+(4096*(&NCNT-1)),&REG(&NCNT)
&NCNT    SETA  &NCNT+1
         AIF   (&NCNT LE N'&REG).LOOP1
&NCNT    SETA  2
&NCON    BALR  15,0                     INSURE PGM MASK AND BASE
         BCTR  15,0                     ADDRESSABILITY IN
         BCTR  15,0                     ENTRY-POINT REGISTER
         STM   14,12,12(13)             SAVE REGS IN PROVIDED AREA
         LR    &REG(1),15               LOAD BASE 1
.LOOP2   ANOP
         AIF   (&NCNT GT N'&REG).DCBLD
         L     &REG(&NCNT),BR&NCNT&A    LOAD BASE
&NCNT    SETA  &NCNT+1
         AGO   .LOOP2
.DCBLD   AIF   (N'&REG  EQ 1).SAVEA
&NCNT    SETA  N'&REG-1
         CNOP  0,4
         B     *+4+(4*&NCNT)
&NCNT    SETA  2
.LOOP3   ANOP
BR&NCNT&A DC   A(&NCON.+(4096*(&NCNT-1)))
&NCNT    SETA  &NCNT+1
         AIF   (&NCNT LE N'&REG).LOOP3
.SAVEA   ANOP
         AIF  ('&SAVE' EQ '').GETMAIN
         AIF   ('&SAVE'(1,1) NE '(').SAVEFLD
         AIF   ('&SAVE'(2,1) EQ '1').ST1
         LR    1,&SAVE                  POINT TO PROVIDED SAVE AREA
         AGO   .ST1
.SAVEFLD ANOP
         LA    1,&SAVE                  POINT TO PROVIDED SAVE AREA
.ST1     LA    1,0(0,1)                 CLEAR HIGH ORDER BYTE
         ST    1,8(0,13)                CHAIN TO LOWER SAVE AREA
         OI    8(13),X'A3'              SET INDICATOR FOR TERME
         AGO   .FINISH
.GETMAIN ANOP
         GETMAIN R,LV=72                GET STORAGE FOR SAVE AREA
         LA    1,0(0,1)                 SET 1 POSITIVE
         XC    0(72,1),0(1)             CLEAR SAVE AREA
         ST    1,8(0,13)                CHAIN TO LOWER SAVE AREA
         OI    8(13),X'DC'              SET INDICATOR FOR TERME
.FINISH  ST    13,4(0,1)                CHAIN TO HIGHER SAVE AREA
         LM    0,1,20(13)               RESTORE 0 AND 1
         L     13,8(0,13)               SET SAVE AREA POINTER
         MEND
         MACRO
&NAME    TERME &OP
         LCLA  &A
&A       SETA  &SYSNDX
***********************************************************************
*                STANDARD OS RETURN CODING                            *
***********************************************************************
&NAME    L     13,4(0,13)           GET HIGHER SAVE POINTER
**** NOTE.  NEXT STM INSTRUCTION CAUSES REGS 0 AND 1 TO BE RESTORED
**** AS THEY WERE IN CALLED PROGRAM.  IF MACRO-USER DESIRES TO RESTORE
**** 0 AND 1 AS THEY WERE IN CALLING PROGRAM, PULL STM CARD.
         STM   0,1,20(13)           TEMPORARY SAVE OF 0 AND 1
         XI    8(13),X'DC'          FREE SAVE AREA
         BC    7,IXI5&A             NO
         L     1,8(0,13)            YES
         FREEMAIN R,LV=72,A=(1)
IXI5&A   L     14,16(0,13)
         SPM   14                   RESTORE PGM MASK
         L     14,12(0,13)          RESTORE REG 14
         LM    0,12,20(13)          RESTORE REGS 0 THRU 12
         XC    8(4,13),8(13)
         AIF   ('&OP' EQ 'XCTL').C
         BR    14
         MEXIT
.C       ANOP
         BALR  15,0
         USING *,15
         MEND
         START 0
START    PRIME REG=(5,6,7)
         OPEN  (SYSIN,,SYSOUT,OUTPUT)
         TIME  DEC
         ST    0,ANS
         MVC   FLDX+2(1),ANS+2
         MVO   FLDX(4),FLDX(3)
         ZAP   SHUF,FLDX+2(2)
         BAL   10,SHUFFLE
         MVC   LINO,LINO-1
         MVC   LINO(26),=C'THE COMPUTER IS THE DEALER'
         PUT   SYSOUT,LINO
         MVC   LINO,LINO-1
         MVC   LINO(37),=C'DEALER MUST HIT ON 16 AND STAND ON 17'
         PUT   SYSOUT,LINO
         MVC   LINO,LINO-1
         MVC   LINO(42),=C'IF YOU HAVE 5 CRDS UNDER 21 YOU MUST STAND'
         PUT   SYSOUT,LINO
         MVC   LINO,LINO-1
AGAIN    MVC   LINO(37),=C'TYPE IN A 2 POSITION # THAT INDICATES'
         PUT   SYSOUT,LINO
         MVC   LINO,LINO-1
         MVC   LINO(32),=C'THE TIMES YOU WISH DECK SHUFFLED'
         PUT   SYSOUT,LINO
         MVC   ANSWER,ANSWER-1
         GET   SYSIN,ANSWER
         CLI   ANSWER+1,64
         BE    AGAIN-6
         PACK SHUF,ANSWER(2)
         BAL   10,SHUFFLE
         B     CUT
SHUFFLE  LA    2,DK1
         LA    3,DK+25
         LA    4,DK
         LA    8,26
MVC      MVC   0(1,2),0(3)
         MVC   1(1,2),0(4)
         LA    2,2(2)
         LA    3,1(3)
         LA    4,1(4)
         BCT   8,MVC
         MVC   DK,DK1
         SP    SHUF,=P'1'
         CP    SHUF,=P'0'
         BNE   SHUFFLE
         BR    10
CUT      MVC   LINO,LINO-1
         MVC   LINO(34),=C'TYPE A 2 POSITION # FROM 1-52 THAT'
         PUT   SYSOUT,LINO
         MVC   LINO,LINO-1
         MVC   LINO(42),=C'INDICATES THE POINT AT WHICH YOU WOULD CUT'
         PUT   SYSOUT,LINO
         MVC   ANSWER,ANSWER-1
         GET   SYSIN,ANSWER
         CLI   ANSWER+1,64
         BE    CUT
         PACK  CUTPT,ANSWER(2)
         CP    CUTPT,=P'52'
         BH    CUT
PRO      MVC   DK1+51(1),DK
         MVC   DK1(51),DK+1
         MVC   DK,DK1
         SP    CUTPT,=P'1'
         CP    CUTPT,=P'0'
         BNE   PRO
NOPLAYR  MVC   LINO,LINO-1
         MVC   LINO(29),=C'TYPE IN # OF PLAYERS-MAX OF 3'
         PUT   SYSOUT,LINO
         MVC   ANSWER,ANSWER-1
         GET   SYSIN,ANSWER
         CLI   ANSWER,64
         BE    NOPLAYR
         CP    PLR1,=P'0'
         BE    COMP
         PACK  PLYRS,ANSWER(1)
         ZAP   PLR,PLYRS
         CP    PLYRS,PLR1
         BL    LAP
         CP    PLYRS,PLR1
         BH    MP
         B     COMP
LAP      ZAP   LAP1,PLR1
         SP    LAP1,PLYRS
         CP    LAP1,=P'2'
         BE    LAP2
         MVC   LINO,LINO-1
         MVC   LINO(34),=C'TYPE IN THE # OF PLAYER WHO FOLDED'
         PUT   SYSOUT,LINO
         MVC   ANSWER,ANSWER-1
         GET   SYSIN,ANSWER
         CLI   ANSWER,C'1'
         BNE   LAP3
         ZAP   B1,B2
         MVC   LINO,LINO-1
         MVC   LINO(24),=C'PLAYER 2 IS NOW PLAYER 1'
         PUT   SYSOUT,LINO
         CP    PLR1,=P'2'
         BE    LAP6
LAP5     ZAP   B2,B3
         ZAP   B3,ZERO1
         MVC   LINO,LINO-1
         MVC   LINO(24),=C'PLAYER 3 IS NOW PLAYER 2'
         PUT   SYSOUT,LINO
         B     LAP6
LAP3     CLI   ANSWER,C'2'
         BNE   LAP4
         B     LAP5
LAP4     ZAP   B3,ZERO1
         MVC   LINO,LINO-1
         MVC   LINO(26),=C'PLAYERS RETAIN PREVIOUS #S'
         PUT   SYSOUT,LINO
         B     LAP6
MP       MVC   LINO,LINO-1
         MVC   LINO(37),=C'THE PLAYER-S- WHO PLAYED THE PREVIOUS'
         PUT   SYSOUT,LINO
         MVC   LINO,LINO-1
         MVC   LINO(29),=C'GAME MUST RETAIN THEIR SAME #'
         PUT   SYSOUT,LINO
         B     LAP6
LAP2     MVC   LINO,LINO-1
         MVC   LINO(36),=C'TYPE IN POSITIONS 1 AND 2, THE #S OF'
         PUT   SYSOUT,LINO
         MVC   LINO,LINO-1
         MVC   LINO(26),=C'THE TWO PLAYERS WHO FOLDED'
         PUT   SYSOUT,LINO
         MVC   ANSWER,ANSWER-1
         GET   SYSIN,ANSWER
         CLC   ANSWER(2),=C'12'
         BE    TWELVE
         CLC   ANSWER(2),=C'13'
         BE    THIRT
ZC       ZAP   B2,ZERO1
         ZAP   B3,ZERO1
         B     LAP6
TWELVE   ZAP   B1,B3
         MVC   LINO,LINO-1
         MVC   LINO(24),=C'PLAYER 3 IS NOW PLAYER 1'
         PUT   SYSOUT,LINO
         B     ZC
THIRT    ZAP   B1,B2
         MVC   LINO,LINO-1
         MVC   LINO(24),=C'PLAYER 2 IS NOW PLAYER 1'
         PUT   SYSOUT,LINO
         B     ZC
COMP     PACK  PLYRS,ANSWER(1)
LAP6     ZAP   PLR1,PLYRS
         MVC   PLR,PLYRS
         CP    PLYRS,=P'3'
         BE    GO
         CP    PLYRS,=P'2'
         BE    GO
         CP    PLYRS,=P'1'
         BE    GO
         MVC   LINO,LINO-1
         MVC   LINO(23),=C'INVALID REPLY-TRY AGAIN'
         PUT   SYSOUT,LINO
         MVC   ANSWER,ANSWER-1
         GET   SYSIN,ANSWER
         B     COMP
GO       CLC   DK(1),=C'A'
         BE    EOR11
         CLC   DK(1),=C'T'
         BE    TEN1
         CLC   DK(1),=C'J'
         BE    TEN1
         CLC   DK(1),=C'Q'
         BE    TEN1
         CLC   DK(1),=C'K'
         BE    TEN1
         PACK  AMT,DK(1)
         AP    AMT1,AMT
         AP    AMT2,AMT
         ZAP   AMT,ZERO
GO1      CLC   DK+1(1),=C'A'
         BE    EOR12
         CLC   DK+1(1),=C'T'
         BE    TEN2
         CLC   DK+1(1),=C'J'
         BE    TEN2
         CLC   DK+1(1),=C'Q'
         BE    TEN2
         CLC   DK+1(1),=C'K'
         BE    TEN2
         PACK  AMT,DK+1(1)
         AP    AMT3,AMT
         AP    AMT4,AMT
         ZAP   AMT,ZERO
GO2      SP    PLR,=P'1'
         CP    PLR,=P'0'
         BE    GOON
         CLC   DK+2(1),=C'A'
         BE    EOR13
         CLC   DK+2(1),=C'T'
         BE    TEN3
         CLC   DK+2(1),=C'J'
         BE    TEN3
         CLC   DK+2(1),=C'Q'
         BE    TEN3
         CLC   DK+2(1),=C'K'
         BE    TEN3
         PACK  AMT,DK+2(1)
         AP    AMT5,AMT
         AP    AMT6,AMT
         ZAP   AMT,ZERO
GO3      SP    PLR,=P'1'
         CP    PLR,=P'0'
         BE    GOON
         CLC   DK+3(1),=C'A'
         BE    EOR14
         CLC   DK+3(1),=C'T'
         BE    TEN4
         CLC   DK+3(1),=C'J'
         BE    TEN4
         CLC   DK+3(1),=C'Q'
         BE    TEN4
         CLC   DK+3(1),=C'K'
         BE    TEN4
         PACK  AMT,DK+3(1)
         AP    AMT7,AMT
         AP    AMT8,AMT
         ZAP   AMT,ZERO
GO4      SP    PLR,=P'1'
         CP    PLR,=P'0'
         BE    GOON
GOON     TM    SW,B'10000000'
         BO    TOF
         ZAP   PLR,PLYRS
         MVC   DK2,DK
         MVC   DK1+51(1),DK
         MVC   DK1(51),DK+1
         MVC   DK,DK1
REPEAT   MVC   DK1+51(1),DK
         MVC   DK1(51),DK+1
         MVC   DK,DK1
         SP    PLR,=P'1'
         CP    PLR,=P'0'
         BNE   REPEAT
         ZAP   PLR,PLYRS
         TM    SW,B'10000000'
         BO    TOF
         OI    SW,B'10000000'
         B     GO
TOF      OI    SW,B'00000000'
         MVC   DK,DK2
         ZAP   PLR,PLYRS
         BAL   11,FINDHDR
         B     WRITE
BAD#PLR  B     EOF
FINDHDR  CP    PLYRS,=P'1'
         BNE   *+12
         BAL   10,HDR1
         B     BR11
         CP    PLYRS,=P'2'
         BNE   *+12
         BAL   10,HDR2
         B     BR11
         CP    PLYRS,=P'3'
         BNE   BAD#PLR
         BAL   10,HDR3
BR11     BR    11
HDR1     MVC   LINO,LINO-1
         MVC   LINO+5(17),=C'NO 1          370'
         BR    10
HDR2     MVC   LINO,LINO-1
         MVC   LINO+5(31),=C'NO 1          NO 2          370'
         BR    10
HDR3     MVC   LINO,LINO-1
         MVC   LINO+5(45),=C'NO 1          NO 2          NO 3          X
               370'
         BR    10
WRITE    PUT   SYSOUT,LINO
         MVC   LINO,LINO-1
         MVC   LINE+2(1),DK
         BAL   10,INV
         MVC   LINE+16(1),DK
         BAL   10,INV
         SP    PLR,=P'1'
         CP    PLR,=P'0'
         BNE   DEAL
         ZAP   PLR,PLYRS
         MVC   LINE+4(1),DK
         BAL   10,INV
         MVC   DLRCRD,DK
         MVI   LINE+18,X'5C'
         BAL   10,INV
         B     WR1
DEAL     MVC   LINE+30(1),DK
         BAL   10,INV
         SP    PLR,=P'1'
         CP    PLR,=P'0'
         BNE   DEAL1
         ZAP   PLR,PLYRS
         MVC   LINE+4(1),DK
         BAL   10,INV
         MVC   LINE+18(1),DK
         BAL   10,INV
         MVC   DLRCRD,DK
         MVI   LINE+32,X'5C'
         BAL   10,INV
         B     WR1
DEAL1    MVC   LINE+44(1),DK
         BAL   10,INV
         MVC   LINE+4(1),DK
         BAL   10,INV
         MVC   LINE+18(1),DK
         BAL   10,INV
         MVC   LINE+32(1),DK
         BAL   10,INV
         MVC   DLRCRD,DK
         MVI   LINE+46,X'5C'
         BAL   10,INV
         B     WR1
INV      MVC   DK1(51),DK+1
         MVC   DK1+51(1),DK
         MVC   DK,DK1
         BR    10
WR1      MVC   LINO,LINE
         PUT   SYSOUT,LINO
WTOT     MVC   LINO,LINO-1
         PUT   SYSOUT,LINO
         MVC   LINO,LINO-1
         MVC   LINO(11),=C'PLAYER NO 1'
         PUT   SYSOUT,LINO
CAFT     MVC   LINO,LINO-1
         MVC   LINO(6),=C'TOTAL '
         MVC   LINO+6(4),P1
         ED    LINO+6(4),AMT1
         CLC   AMT1,AMT2
         BE    PO
         MVC   LINO+10(4),=C' OR '
         MVC   LINO+14(4),P1
         ED    LINO+14(4),AMT2
         PUT   SYSOUT,LINO
         B     BP
PO       PUT   SYSOUT,LINO
BP       CP    AMT1,=P'21'
         BC    2,OO
         ZAP   AMT,=P'21'
         SP    AMT,AMT1
         BAL   10,BP1
         TM    SW8,B'10000000'
         BO    NB
         TM    SW7,B'10000000'
         BO    NB
         OI    SW8,B'10000000'
BADBET1  MVC   LINO,LINO-1
         MVC   LINO(19),=C'ENTER A 3 DIGET BET'
         PUT   SYSOUT,LINO
         MVC   ANSWER,ANSWER-1
         GET   SYSIN,ANSWER
         CLI   ANSWER+2,64
         BE    BADBET1
         PACK  POB,ANSWER(3)
         ZAP   POTB,POB
         ZAP   POB,ZERO
NB       ZAP   AMT,ZERO
         TM    SW7,B'10000000'
         BO    DEALERC
CHOS     MVC   LINO,LINO-1
         MVC   LINO(30),=C'TYPE H FOR HIT AND S FOR STAND'
         PUT   SYSOUT,LINO
         GET   SYSIN,ANSWER
HOS      CLC   ANSWER(1),=C'H'
         BE    HIT1
         CLC   ANSWER(1),=C'S'
         BE    ST1
         MVC   LINO,LINO-1
         MVC   LINO(24),=C'INVALID REPLY, TRY AGAIN'
         PUT   SYSOUT,LINO
         MVC   ANSWER,ANSWER-1
         GET   SYSIN,ANSWER
         B     HOS
BP1      MVC   LINO,LINO-1
         MVC   LINO(12),=C'BREAK POINT '
         MVC   LINO+12(4),P1
         ED    LINO+12(4),AMT
         PUT   SYSOUT,LINO
         BR    10
OO       MVC   LINO,LINO-1
         MVC   LINO(16),=C'PLYR 1 BREAKS 21'
         PUT   SYSOUT,LINO
         B     ST1
EOR11    TM    SW1,B'10000000'
         BO    A
         OI    SW1,B'10000000'
         AP    AMT1,=P'1'
         AP    AMT2,=P'11'
         B     GO1
A        AP    AMT1,=P'1'
         AP    AMT2,=P'1'
         B     GO1
EOR12    TM    SW2,B'10000000'
         BO    B
         OI    SW2,B'10000000'
         AP    AMT3,=P'1'
         AP    AMT4,=P'11'
         B     GO2
B        AP    AMT3,=P'1'
         AP    AMT4,=P'1'
         B     GO2
EOR13    TM    SW3,B'10000000'
         BO    C
         OI    SW3,B'10000000'
         AP    AMT5,=P'1'
         AP    AMT6,=P'11'
         B     GO3
C        AP    AMT5,=P'1'
         AP    AMT6,=P'1'
         B     GO3
EOR14    TM    SW4,B'10000000'
         BO    D
         OI    SW4,B'10000000'
         AP    AMT7,=P'1'
         AP    AMT8,=P'11'
         B     GO4
D        AP    AMT7,=P'1'
         AP    AMT8,=P'1'
         B     GO4
TEN1     AP    AMT1,=P'10'
         AP    AMT2,=P'10'
         B     GO1
TEN2     AP    AMT3,=P'10'
         AP    AMT4,=P'10'
         B     GO2
TEN3     AP    AMT5,=P'10'
         AP    AMT6,=P'10'
         B     GO3
TEN4     AP    AMT7,=P'10'
         AP    AMT8,=P'10'
         B     GO4
HIT1     AP    PN1,=P'1'
         BAL   10,CREC
         CLC   DK(1),=C'A'
         BE    ACE1
         CLC   DK(1),=C'T'
         BE    T1
         CLC   DK(1),=C'J'
         BE    T1
         CLC   DK(1),=C'Q'
         BE    T1
         CLC   DK(1),=C'K'
         BE    T1
         PACK  AMT,DK(1)
         AP    AMT1,AMT
         AP    AMT2,AMT
         ZAP   AMT,ZERO
WHIT1    CP    PN1,=P'3'
         BNE   FOUR
         MVC   LINE+6(1),DK
         BAL   10,INV
         BAL   11,FINDHDR
         PUT   SYSOUT,LINO
         MVC   LINO,LINE
         PUT   SYSOUT,LINO
         B     CAFT
FOUR     CP    PN1,=P'4'
         BNE   FIVE
         MVC   LINE+8(1),DK
         BAL   10,INV
         BAL   11,FINDHDR
         PUT   SYSOUT,LINO
         MVC   LINO,LINE
         PUT   SYSOUT,LINO
         B     CAFT
FIVE     MVC   LINE+10(1),DK
         BAL   10,INV
         BAL   11,FINDHDR
         PUT   SYSOUT,LINO
         MVC   LINO,LINE
         PUT   SYSOUT,LINO
         B     CAFT
ACE1     TM    SW1,B'10000000'
         BO    A1
         OI    SW1,B'10000000'
         AP    AMT1,=P'1'
         AP    AMT2,=P'11'
         B     WHIT1
A1       AP    AMT1,=P'1'
         AP    AMT2,=P'1'
         B     WHIT1
T1       AP    AMT1,=P'10'
         AP    AMT2,=P'10'
         B     WHIT1
ST1      ZAP   PLR,PLYRS
         SP    PLR,=P'1'
         CP    PLR,=P'0'
         BE    DEALER
         BAL   11,FINDHDR
         PUT   SYSOUT,LINO
         MVC   LINO,LINE
         PUT   SYSOUT,LINO
PNTI     MVC   LINO,LINO-1
         MVC   LINO(11),=C'PLAYER NO 2'
         PUT   SYSOUT,LINO
CAFT1    MVC   LINO,LINO-1
         MVC   LINO(6),=C'TOTAL '
         MVC   LINO+6(4),P1
         ED    LINO+6(4),AMT3
         CLC   AMT3,AMT4
         BE    PO1
         MVC   LINO+10(4),=C' OR '
         MVC   LINO+14(4),P1
         ED    LINO+14(4),AMT4
         PUT   SYSOUT,LINO
         B     BP2
PO1      PUT   SYSOUT,LINO
BP2      CP    AMT3,=P'21'
         BC    2,O2
         ZAP   AMT,=P'21'
         SP    AMT,AMT3
         BAL   10,BP1
         TM    SW9,B'10000000'
         BO    NB1
         TM    SW7,B'10000000'
         BO    NB1
         OI    SW9,B'10000000'
BADBET2  MVC   LINO,LINO-1
         MVC   LINO(19),=C'ENTER A 3 DIGIT BET'
         PUT   SYSOUT,LINO
         MVC   ANSWER,ANSWER-1
         GET   SYSIN,ANSWER
         CLI   ANSWER+2,64
         BE    BADBET2
         PACK  POB,ANSWER(3)
         ZAP   PTB,POB
         ZAP   POB,ZERO
NB1      ZAP   AMT,ZERO
         TM    SW7,B'10000000'
         BO    DEALERC
CHOS1    MVC   LINO,LINO-1
         MVC   LINO(12),=C'TYPE H OR S '
         PUT   SYSOUT,LINO
         MVC   ANSWER,ANSWER-1
         GET   SYSIN,ANSWER
HOS1     CLC   ANSWER(1),=C'H'
         BE    HIT2
         CLC   ANSWER(1),=C'S'
         BE    ST2
         MVC   LINO,LINO-1
         MVC   LINO(23),=C'INVALID REPLY TRY AGAIN'
         PUT   SYSOUT,LINO
         GET   SYSIN,ANSWER
         B     HOS1
O2       TM    SW7,B'10000000'
         BO    OVER
         MVC   LINO,LINO-1
         MVC   LINO(16),=C'PLYR 2 BREAKS 21'
         PUT   SYSOUT,LINO
         B     ST2
HIT2     AP    PN2,=P'1'
         BAL   10,CREC
         CLC   DK(1),=C'A'
         BE    ACE2
         CLC   DK(1),=C'T'
         BE    T2
         CLC   DK(1),=C'J'
         BE    T2
         CLC   DK(1),=C'Q'
         BE    T2
         CLC   DK(1),=C'K'
         BE    T2
         PACK  AMT,DK(1)
         AP    AMT3,AMT
         AP    AMT4,AMT
         ZAP   AMT,ZERO
WHIT2    CP    PN2,=P'3'
         BNE   FOUR1
         MVC   LINE+20(1),DK
         BAL   10,INV
         BAL   11,FINDHDR
         PUT   SYSOUT,LINO
         MVC   LINO,LINE
         PUT   SYSOUT,LINO
         B     CAFT1
FOUR1    CP    PN2,=P'4'
         BNE   FIVE1
         MVC   LINE+22(1),DK
         BAL   10,INV
         BAL   11,FINDHDR
         PUT   SYSOUT,LINO
         MVC   LINO,LINE
         PUT   SYSOUT,LINO
         B     CAFT1
FIVE1    MVC   LINE+24(1),DK
         BAL   10,INV
         BAL   11,FINDHDR
         PUT   SYSOUT,LINO
         MVC   LINO,LINE
         PUT   SYSOUT,LINO
         B     CAFT1
ACE2     TM    SW2,B'10000000'
         BO    A2
         OI    SW2,B'10000000'
         AP    AMT3,=P'1'
         AP    AMT4,=P'11'
         B     WHIT2
A2       AP    AMT3,=P'1'
         AP    AMT4,=P'1'
         B     WHIT2
T2       AP    AMT3,=P'10'
         AP    AMT4,=P'10'
         B     WHIT2
ST2      SP    PLR,=P'1'
         CP    PLR,=P'0'
         BE    DEALER
         BAL   11,FINDHDR
         PUT   SYSOUT,LINO
         MVC   LINO,LINE
         PUT   SYSOUT,LINO
PNTH1    MVC   LINO,LINO-1
         MVC   LINO(11),=C'PLAYER NO 3'
         PUT   SYSOUT,LINO
CAFT2    MVC   LINO,LINO-1
         MVC   LINO(6),=C'TOTAL '
         MVC   LINO+6(4),P1
         ED    LINO+6(4),AMT5
         CLC   AMT5,AMT6
         BE    PO2
         MVC   LINO+10(4),=C' OR '
         MVC   LINO+14(4),P1
         ED    LINO+14(4),AMT6
         PUT   SYSOUT,LINO
         B     BP3
PO2      PUT   SYSOUT,LINO
BP3      CP    AMT5,=P'21'
         BC    2,O3
         ZAP   AMT,=P'21'
         SP    AMT,AMT5
         BAL   10,BP1
         TM    SW10,B'10000000'
         BO    NB2
         TM    SW7,B'10000000'
         BO    NB2
         OI    SW10,B'10000000'
BADBET3  MVC   LINO,LINO-1
         MVC   LINO(19),=C'ENTER A 3 DIGIT BET'
         PUT   SYSOUT,LINO
         MVC   ANSWER,ANSWER-1
         GET   SYSIN,ANSWER
         CLI   ANSWER+2,64
         BE    BADBET3
         PACK  POB,ANSWER(3)
         ZAP   P3B,POB
         ZAP   POB,ZERO
NB2      ZAP   AMT,ZERO
         TM    SW7,B'10000000'
         BO    DEALERC
CHOS2    MVC   LINO,LINO-1
         MVC   LINO(14),=C'TYPE IN H OR S'
         PUT   SYSOUT,LINO
         MVC   ANSWER,ANSWER-1
         GET   SYSIN,ANSWER
HOS2     CLC   ANSWER(1),=C'H'
         BE    HIT3
         CLC   ANSWER(1),=C'S'
         BE    DEALER
         MVC   LINO,LINO-1
         MVC   LINO(23),=C'INVALID REPLY TRY AGAIN'
         PUT   SYSOUT,LINO
         MVC   ANSWER,ANSWER-1
         GET   SYSIN,ANSWER
         B     HOS2
O3       TM   SW7,B'10000000'
         BO    OVER
         MVC   LINO,LINO-1
         MVC   LINO(16),=C'PLYR 3 BREAKS 21'
         PUT   SYSOUT,LINO
         B     DEALER
HIT3     AP    PN3,=P'1'
         BAL   10,CREC
         CLC   DK(1),=C'A'
         BE    ACE3
         CLC   DK(1),=C'T'
         BE    T3
         CLC   DK(1),=C'J'
         BE    T3
         CLC   DK(1),=C'Q'
         BE    T3
         CLC   DK(1),=C'K'
         BE    T3
         PACK  AMT,DK(1)
         AP    AMT5,AMT
         AP    AMT6,AMT
         ZAP   AMT,ZERO
WHIT3    CP    PN3,=P'3'
         BNE   FOUR2
         MVC   LINE+34(1),DK
         BAL   10,INV
         BAL   11,FINDHDR
         PUT   SYSOUT,LINO
         MVC   LINO,LINE
         PUT   SYSOUT,LINO
         B     CAFT2
FOUR2    CP    PN3,=P'4'
         BNE   FIVE2
         MVC   LINE+36(1),DK
         BAL   10,INV
         BAL   11,FINDHDR
         PUT   SYSOUT,LINO
         MVC   LINO,LINE
         PUT   SYSOUT,LINO
         B     CAFT2
FIVE2    MVC   LINE+38(1),DK
         BAL   10,INV
         BAL   11,FINDHDR
         PUT   SYSOUT,LINO
         MVC   LINO,LINE
         PUT   SYSOUT,LINO
         B     CAFT2
ACE3     TM    SW3,B'10000000'
         BO    A3
         OI    SW3,B'10000000'
         AP    AMT5,=P'1'
         AP    AMT6,=P'11'
         B     WHIT3
A3       AP    AMT5,=P'1'
         AP    AMT6,=P'1'
         B     WHIT3
T3       AP    AMT5,=P'10'
         AP    AMT6,=P'10'
         B     WHIT3
DEALER   ZAP   PLR,PLYRS
         OI    SW7,B'10000000'
         CP    PLR,=P'3'
         BNE   TPLR
         CLC   AMT7,AMT8
         BNE   OPT
         CP    AMT7,=P'17'
         BC    4,DLRHT
         B     DLRST
OPT      CP    AMT8,=P'17'
         BC    4,DLRHT
         CP    AMT8,=P'22'
         BC    4,DLRST
         CP    AMT7,=P'17'
         BC    4,DLRHT
         B     DLRST
TPLR     CP    PLR,=P'2'
         BNE   OPLR
         CLC   AMT5,AMT6
         BNE   OPT1
         CP    AMT5,=P'17'
         BC    4,DLRHT
         B     DLRST
OPT1     CP    AMT6,=P'17'
         BC    4,DLRHT
         CP    AMT6,=P'22'
         BC    4,DLRST
         CP    AMT5,=P'17'
         BC    4,DLRHT
         B     DLRST
OPLR     CLC   AMT3,AMT4
         BNE   OPT2
         CP    AMT3,=P'17'
         BC    4,DLRHT
         B     DLRST
OPT2     CP    AMT4,=P'17'
         BC    4,DLRHT
         CP    AMT4,=P'22'
         BC    4,DLRST
         CP    AMT3,=P'17'
         BC    4,DLRHT
         B     DLRST
DLRHT    MVC   LINO,LINO-1
         MVC   LINO(15),=C'DEALER WILL HIT'
         PUT   SYSOUT,LINO
         BAL   10,CREC
         CP    PLR,=P'3'
         BNE   CA
         AP    PN4,=P'1'
         CLC   DK(1),=C'A'
         BE    DA1
         CLC   DK(1),=C'T'
         BE    DT1
         CLC   DK(1),=C'J'
         BE    DT1
         CLC   DK(1),=C'Q'
         BE    DT1
         CLC   DK(1),=C'K'
         BE    DT1
         PACK  AMT,DK(1)
         AP    AMT7,AMT
         AP    AMT8,AMT
CHECK    CP    PN4,=P'3'
         BNE   FC
         MVC   LINE+46(1),DLRCRD
         MVC   LINE+48(1),DK
         BAL   10,INV
         BAL   11,FINDHDR
         PUT   SYSOUT,LINO
         MVC   LINO,LINE
         PUT   SYSOUT,LINO
         B     PTD
DA1      TM    SW4,B'10000000'
         BO    DA11
         OI    SW4,B'10000000'
         AP    AMT7,=P'1'
         AP    AMT8,=P'11'
         B     CHECK
DA11     AP    AMT7,=P'1'
         AP    AMT8,=P'1'
         B     CHECK
DT1      AP    AMT7,=P'10'
         AP    AMT8,=P'10'
         B     CHECK
FC       CP    PN4,=P'4'
         BNE   LC
         MVC   LINE+46(1),DLRCRD
         MVC   LINE+50(1),DK
         BAL   10,INV
         BAL   11,FINDHDR
         PUT   SYSOUT,LINO
         MVC   LINO,LINE
         PUT   SYSOUT,LINO
         B     PTD
LC       OI    SW6,B'10000000'
         MVC   LINE+46(1),DLRCRD
         MVC   LINE+52(1),DK
         BAL   10,INV
         BAL   11,FINDHDR
         PUT   SYSOUT,LINO
         MVC   LINO,LINE
         PUT   SYSOUT,LINO
PTD      MVC   LINO,LINO-1
         MVC   LINO(6),=C'TOTAL '
         MVC   LINO+6(4),P1
         ED    LINO+6(4),AMT7
         CLC   AMT7,AMT8
         BE    PO7
         MVC   LINO+10(4),=C' OR '
         MVC   LINO+14(4),P1
         MVC   LINO+14(4),AMT8
         PUT   SYSOUT,LINO
         B     BP5
PO7      PUT   SYSOUT,LINO
BP5      CP    AMT7,=P'21'
         BC    2,OVER
         ZAP   AMT,=P'21'
         SP    AMT,AMT7
         BAL   10,BP1
DEALERC  TM    SW6,B'10000000'
         BO    DLRST
         B     DEALER
CA       CP    PLR,=P'2'
         BNE   CA1
         AP    PN3,=P'1'
         CLC   DK(1),=C'A'
         BE    DA2
         CLC   DK(1),=C'T'
         BE    DT2
         CLC   DK(1),=C'J'
         BE    DT2
         CLC   DK(1),=C'Q'
         BE    DT2
         CLC   DK(1),=C'K'
         BE    DT2
         PACK  AMT,DK(1)
         AP    AMT5,AMT
         AP    AMT6,AMT
         ZAP   AMT,ZERO
CHECK1   CP    PN3,=P'3'
         BNE   FC1
         MVC   LINE+32(1),DLRCRD
         MVC   LINE+34(1),DK
         BAL   10,INV
         BAL   11,FINDHDR
         PUT   SYSOUT,LINO
         MVC   LINO,LINE
         PUT   SYSOUT,LINO
         B     CAFT2
DA2      TM    SW3,B'10000000'
         BO    DA22
         OI    SW3,B'10000000'
         AP    AMT5,=P'1'
         AP    AMT6,=P'11'
         B     CHECK1
DA22     AP    AMT5,=P'1'
         AP    AMT6,=P'1'
         B     CHECK1
DT2      AP    AMT5,=P'10'
         AP    AMT6,=P'10'
         B     CHECK1
FC1      CP    PN3,=P'1'
         BNE   LC1
         MVC   LINE+32(1),DLRCRD
         MVC   LINE+36(1),DK
         BAL   10,INV
         BAL   11,FINDHDR
         PUT   SYSOUT,LINO
         MVC   LINO,LINE
         PUT   SYSOUT,LINO
         B     CAFT2
LC1      OI    SW6,B'10000000'
         MVC   LINE+32(1),DLRCRD
         MVC   LINE+38(1),DK
         BAL   10,INV
         BAL   11,FINDHDR
         PUT   SYSOUT,LINO
         MVC   LINO,LINE
         PUT   SYSOUT,LINO
         B     CAFT2
CA1      AP    PN2,=P'1'
         CLC   DK(1),=C'A'
         BE    DA3
         CLC   DK(1),=C'J'
         BE    DT3
         CLC   DK(1),=C'Q'
         BE    DT3
         CLC   DK(1),=C'T'
         BE    DT3
         CLC   DK(1),=C'K'
         BE    DT3
         PACK  AMT,DK(1)
         AP    AMT3,AMT
         AP    AMT4,AMT
         ZAP   AMT,ZERO
CHECK2   CP    PN2,=P'3'
         BNE   FC2
         MVC   LINE+18(1),DLRCRD
         MVC   LINE+20(1),DK
         BAL   10,INV
         BAL   11,FINDHDR
         PUT   SYSOUT,LINO
         MVC   LINO,LINE
         PUT   SYSOUT,LINO
         B     CAFT1
DA3      TM    SW2,B'10000000'
         BO    DA33
         OI    SW2,B'10000000'
         AP    AMT3,=P'1'
         AP    AMT4,=P'11'
         B     CHECK2
DA33     AP    AMT3,=P'1'
         AP    AMT4,=P'1'
         B     CHECK2
DT3      AP    AMT3,=P'10'
         AP    AMT4,=P'10'
         B     CHECK2
FC2      CP    PN2,=P'4'
         BNE   LC2
         MVC   LINE+18(1),DLRCRD
         MVC   LINE+22(1),DK
         BAL   10,INV
         BAL   11,FINDHDR
         PUT   SYSOUT,LINO
         MVC   LINO,LINE
         PUT   SYSOUT,LINO
         B     CAFT1
LC2      OI    SW6,B'10000000'
         MVC   LINE+18(1),DLRCRD
         MVC   LINE+24(1),DK
         BAL   10,INV
         BAL   11,FINDHDR
         PUT   SYSOUT,LINO
         MVC   LINO,LINE
         PUT   SYSOUT,LINO
         B     CAFT1
DLRST    ZAP   PLR,PLYRS
         CP    PLR,=P'3'
         BE    TEST
         CP    PLR,=P'2'
         BE    TEST1
         CLC   AMT3,AMT4
         BE    TEST2
         CP    AMT3,=P'21'
         BC    2,OVER
         CP    AMT4,=P'21'
         BC    2,OVER2
         CP    PN2,=P'4'
         BC    2,D5U
         CP    PN2,=P'4'
         BE    DLRHT
         ZAP   TOTAL,AMT4
         B     END
OVER2    CP    PN2,=P'4'
         BC    2,D5U
         ZAP   TOTAL,AMT3