         MACRO
&NAME    CKREQ
.* 200000-220000,810000-840000                                    20002
.* D180000,D220000-810000,C820000                              @Y17XAFS
         ANOP
&NAME    DS    0H .                                               20002
         LINK  EP=IEDQNB .              CKPT INTERFACE ROUTINE    20002
         MEND
