         MACRO
&LABEL   IEDFTAB
         GBLB  &IEDFBIN
         GBLB  &IEDVAL(255)
         LCLC  &NAME                    NAME ON CSECT CARD
.*A000000-999999                                               @Y17XAFF
&NAME    SETC  'IEDFSSTB'               USE USER'S NAME IF CODED
         AIF   ('&LABEL' EQ '').A0010
&NAME    SETC  '&LABEL'
.A0010   ANOP
&NAME    TITLE 'FSS-USS CONVERSION TABLE'
&NAME    CSECT
         DC    AL1(FSSTYPE)             FSS-USS TABLE INDICATOR
&IEDFBIN   SETB  1
&IEDVAL(8)  SETB 1                       SET VALID ID
&IEDVAL(16) SETB 1                        INDICATORS
&IEDVAL(32) SETB 1
&IEDVAL(33) SETB 1                                             @YM06472
&IEDVAL(49) SETB 1                                             @YM06472
&IEDVAL(64) SETB 1
&IEDVAL(128) SETB 1
         SPACE
         MEND
