         MACRO
&NAME    IEDNOL &P
         GBLA  &IEDNCT,&IEDQAR(64)
         GBLB  &IEDQCOD(8),&IEDQRN(8)                          @Y17XAFF
         LCLA  &A,&B,&C
         LCLC  &CSECT
.*A040000,100000                                               @Y17XAFF
         AIF   (NOT &IEDQRN(1)).NOL20   IF NOT 3705 SYSTEM,BRCH@Y17XAFF
         AIF   (&IEDQCOD(5)).NOL10      HAS SSCP TTE BEEN CODED@Y17XAFF
         MNOTE 8,'*** IED910 MUST CODE A SSCP TERMINAL MACRO FOR THE   *
               DEFINED SYSTEM.'                                @Y17XAFF
.NOL10   AIF   (&IEDQCOD(4)).NOL20      HAS LNCP TTE BEEN CODED@Y17XAFF
         MNOTE 8,'*** IED911 MUST CODE A NCP  TERMINAL MACRO FOR THE   *
               DEFINED SYSTEM.'                                @Y17XAFF
.NOL20   ANOP                                                  @Y17XAFF
&CSECT   SETC  '&SYSECT'
         AIF   (&IEDNCT NE 0).BRANCH
         SPACE 2
IEDQTNT  CSECT
         DC    XL1'0'
&CSECT   CSECT
         AGO   .EXIT
.BRANCH  ANOP
&A       SETA  &IEDQAR(1)-3
&B       SETA  &A-1
         SPACE 2
IEDQTNT  CSECT
         DC    AL1(&IEDNCT)
         DC    AL3(IEDNOLTM)
         AIF   (&B EQ 0).SKIP
         DC    CL&B' '
.SKIP    ANOP
&C       SETA  1
.ENT1    AIF   (&IEDNCT EQ &C).GEN
         DC    CL&A' ',AL3(0)
&C       SETA  &C+1
         AGO   .ENT1
.GEN     ANOP
         SPACE 1
&CSECT   CSECT
IEDNOLTM DS    0F
&C       SETA  0
.ENT2    AIF   (&IEDNCT EQ &C).EXIT
         DC    XL210'0'                                        @Y17XAFF
&C       SETA  &C+1
         AGO   .ENT2
.EXIT    ANOP
         MEND
