         MACRO
&NAME    IEDRELS
.*A000000-999999                                               @X50X9MH
.*C180000                                                      @Y17XAMG
         GBLA &IEDQZE(64)
         GBLB &IEDQZA(64)
         LCLB &NOGO
.*
.* START MH ISSUED?
         AIF (&IEDQZA(46)).CKSUBGP                             @Y17XAMG
         MNOTE 12,'*** IHB312 MUST FOLLOW STARTMH MACRO'
&NOGO    SETB  1
.CKSUBGP ANOP
.*
.* ISSUED IN INPUT SIDE OF MH?
         AIF   (&IEDQZA(1) AND NOT &IEDQZA(5)).ERRCHK
         MNOTE 12,'*** IHB070 SEQUENCE ERROR - MUST FOLLOW INBLOCK,INHDX
               R, OR INBUF MACRO'
&NOGO    SETB   1
.*
.ERRCHK  AIF   (&NOGO).EXIT
&NAME    DS    0H
         AIF   (&IEDQZE(4) NE 0).VCON                          @ZM41045
         ORG   IEDAS                                           @ZM41045
         DC    V(IEDQAS01)              RELEASE                @ZM41045
         ORG   ,                                               @ZM41047
.VCON    ANOP
         IEDQVCON 4,IEDQAS                                     @ZM41042
         BAL      1,*+8                 BRANCH AROUND PARM LIST
         DC       AL1(&IEDQZE(4))       INDEX TO IEDQAS
         DC       AL1(3)                PARM LIST LENGTH
         DC       XL1'D9'               CODE FOR IEDRELS MACRO @ZM41041
         DS       0H
         L        15,IEDUI              LOAD R15 WITH ADDR OF QUI
         BALR     14,15                 BRANCH TO IEDQUI
.EXIT    ANOP
         MEND
