         MACRO
&NAME    IEDVOFF &MSK,&CONNECT=OR,&CLEAR=YES,&UPDATE=ADD,&INTVL=,      X
               &COUNT=,&TARGET=TERM,&BLANK=YES
.*A-000000-999999                                              @XA09783
.*               VERSION DATED MAY 30, 1975                    @XA09783
         GBLB  &IEDQZA(64),&IEDNO                              @YM07267
&IEDNO   SETB  0                        RESET ERROR FLAG       @YM07267
         AIF   (&IEDQZA(5) OR &IEDQZA(4) OR &IEDQZA(3)).VOK
         MNOTE 12,'*** IHB070  SEQUENCE ERROR - MUST FOLLOW INHDR,INMSGX
               ,OUTHDR OR OUTMSG MACRO'
.VOK     ANOP
&NAME    IEDQJN &MSK,&CONNECT,&CLEAR,&UPDATE,&INTVL,&COUNT,&TARGET,&BLAX
               NK,V
         MEND
