         MACRO
&NAME    INBLOCK &PATH=
.*C073000                                                       SA56318
         GBLA  &IEDQZE(64)
         GBLB  &IEDQZA(64)
         GBLC  &IEDQZB,&IEDQZJ
         LCLB  &NOGO
         SPACE
         AIF   (&IEDQZA(9)).TSOMH                                S22029
         AGO   .SEQCHK                                           S22029
.TSOMH   MNOTE 12,'*** IED906 INBLOCK MACRO INVALID IN A TSO MH'
&NOGO    SETB  1                                                 S22029
.SEQCHK  ANOP                                                    S22029
         AIF   (&IEDQZA(5) OR &IEDQZA(10)).MN
         AIF   (&IEDQZA(46)).PRM
.MN      MNOTE 12,'***  IHB070  SEQUENCE ERROR - MUST FOLLOW STARTMH MA*
               CRO'
&NOGO    SETB  1
.PRM     AIF   ('&PATH' EQ '').GLOB
         AIF   ('&PATH(1)' NE '' AND '&PATH(2)' NE '').CHECK
.ERR     MNOTE 12,'***  IHB300 PATH OPERAND INVALID AS SPECIFIED'
         AGO   .MEND
.CHECK   IEDQMASK &PATH(2),1
         AIF   (&IEDQZA(24)).ERR
         AIF   ('&PATH(2)' EQ '0' OR '&PATH(2)' EQ 'X''00''' OR '&PATH(*
               2)' EQ 'X''0''' OR '&PATH(2)'(1,2) EQ 'XL').ERR
.GLOB    AIF   (&NOGO).MEND
         AIF   ('&NAME' EQ '').NON
&NAME    DS    0H
.NON     ANOP
&IEDQZA(1) SETB 1
&IEDQZA(2) SETB 0
&IEDQZA(3) SETB 0
&IEDQZA(4) SETB 0
&IEDQZA(5) SETB 0
&IEDQZA(14) SETB 1
&IEDQZB  DS    0H
&IEDQZB  SETC  'IEDR'.'&SYSNDX'
         AIF   (NOT &IEDQZA(20)).NXT
         AIF   ('&IEDQZJ' EQ '').NXT
&IEDQZJ  DS    0H
.NXT     AIF   ('&PATH' EQ '').MEND
         LOCOPT &PATH(1)
         AIF   (&IEDQZA(61)).MEND
         LTR   15,15 .                  OPTION FIELD FOUND
         BZ    &IEDQZB .                NO - GO TO NEXT DELIM
         TM    0(15),&PATH(2) .         PATH SWITCHES ON
         BZ    &IEDQZB .                NO - GO TO NEXT DELIM
         CNOP  0,4
.MEND    SPACE 2
&IEDQZJ  SETC  ''
&IEDQZA(20) SETB 0
&IEDQZA(22) SETB 0
&IEDQZA(23) SETB 0
&IEDQZA(35) SETB 0
         MEND
