         MACRO
&NAME    MCOUNT &DCB=
         GBLB  &IEDQB1
         AIF   ('&DCB' EQ '').ERR1
         AIF   (N'&SYSLIST GT 1).ERR2
         CNOP  0,4
&NAME    DS    0F
         AIF   (&IEDQB1).NOVCON
         B     *+8                     BRANCH AROUND ADDRESS
IEDQMCT  DC    V(IEDQB1) .              ADDRESS OF MCOUNT ROUTINE
&IEDQB1  SETB  1
.NOVCON  ANOP
         AIF   ('&DCB'(1,1) EQ '(').REGS
         LA    1,&DCB
         AGO   .GOOD
.REGS    ANOP
         LR    1,&DCB(1)
.GOOD    ANOP
         L     15,IEDQMCT
         BALR  14,15
         MEXIT
.ERR1    MNOTE 12,'*** IHB004 REQUIRED OPERAND NOT SPECIFIED'
         MEXIT
.ERR2    MNOTE 12,'*** IHB004 EXCESSIVE OPERANDS SPECIFIED'
         MEND
