         MACRO
&NAME    MSGFORM &BLOCK=,&SUBBLCK=,&SENDTRP=NO,&ENDCHAR=,&COUNT=,      *
               &LC=OUT                                           S22024
.*C460000                                                        Y01004
         GBLA  &IEDQZE(64),&IEDQZD,&IEDQZK                       S22025
         GBLB  &IEDQRN(8),&IEDQZA(64)                            S22024
         LCLA  &I,&L,&LNGRS,&CH,&AA,&S                           S22024
         LCLB  &NOGO,&B(8),&OUT,&HEX,&LCIN                       S22024
         LCLC  &TEMP,&C,&A                                       S22025
.*       VERSION DATED MAY 24,1977                             @OY18019
.*A220000                                                      @XA07490
.*D220200                                                      @XA07490
.*C460000                                                        Y02027
.*C180000                                                      @OX12571
.*C460000                                                      @OY18019
.*C460000                                                      @OZ26266
.* DUMMY APAR                                                  @OZ27328
.*C360500                                                      @OZ32771
         SPACE
&I       SETA  2
         AIF   (NOT &IEDQZA(9)).CKINBLK                          S22025
         MNOTE 12,'***  IHB312  MUST FOLLOW STARTMH MACRO WITH TSOMH=NO*
               '
.CKINBLK AIF   (NOT &IEDQZA(14)).TSOCHK                          S22025
         AIF   ('&LC' NE 'IN').CHK23                             S22024
.ERRLC   MNOTE 12,'***  IHB300  LC OPERAND INVALID AS SPECIFIED' S22024
         AGO   .MEND                                             S22024
.CHK23   ANOP                                                    S22024
         AIF   (&IEDQZA(23)).SECOND                              S22025
&IEDQZA(23) SETB 1                                               S22025
         AGO   .CKINOUT                                          S22025
.SECOND  MNOTE 12,'*** IHB234 MSGFORM MACRO PREVIOUSLY DEFINED IN      C
               INBLOCK'                                          S22025
         AGO   .MEND                                             S22025
.CKINOUT AIF   ('&SUBBLCK' EQ '' AND '&COUNT' EQ '').CK2         S22025
.ERR4    ANOP
         MNOTE 12,'*** IHB324 INVALID OPERANDS SPECIFIED'        S22025
         AGO   .MEND                                             S22025
.CK2     AIF   ('&BLOCK' NE '' AND '&ENDCHAR' NE '').CK3         S22025
.BLKREQ  ANOP                                                    S22024
         MNOTE 12,'*** IHB001 REQUIRED OPERAND NOT SPECIFIED ***'
         AGO   .MEND                                             S22025
.CKENDC  ANOP                                                    S22025
&TEMP    SETC  'ENDCHAR'                                         S22025
.CK3     ANOP                                                    S22025
         AIF   ('&ENDCHAR'(1,2) NE 'C''').CKRS1                  S22025
         AIF   ('&ENDCHAR'(K'&ENDCHAR,1) NE '''' OR K'&ENDCHAR GT      X
               11).ERR1                                          S22025
&LNGRS   SETA  (K'&ENDCHAR-3)                                    S22025
         AGO   .CKBLK                                            S22025
.CKRS1   AIF   ('&ENDCHAR'(1,2) NE 'CL').CKRS2                   S22025
         AIF   ('&ENDCHAR'(4,1) NE '''' OR '&ENDCHAR'(K'&ENDCHAR,1) NE X
               '''').OPFD1                                       S22025
&C       SETC  '&ENDCHAR'(3,1)                                   S22025
&CH      SETA  &C                                                S22025
         AIF   (K'&ENDCHAR GT 13 OR &CH NE (K'&ENDCHAR-5)).ERR3  S22025
&LNGRS   SETA  (K'&ENDCHAR-5)                                    S22025
         AGO   .CKBLK                                            S22025
.CKRS2   AIF   ('&ENDCHAR'(1,2) NE 'X''').CKRS3                  S22025
         AIF   ('&ENDCHAR'(K'&ENDCHAR,1) NE '''' OR K'&ENDCHAR GT      X
               19).FFF                                           S22025
&LNGRS   SETA  ((K'&ENDCHAR-3)/2)                                S22025
         AGO   .CKBLK                                            S22025
.CKRS3   AIF   ('&ENDCHAR'(1,2) NE 'XL').OPFD1                   S22025
         AIF   ('&ENDCHAR'(4,1) NE '''' OR '&ENDCHAR'(K'&ENDCHAR,1) NE X
               '''').OPFD1                                       S22025
&C       SETC  '&ENDCHAR'(3,1)                                   S22025
&CH      SETA  &C                                                S22025
&CH      SETA  (&CH*2)                                           S22025
         AIF   (K'&ENDCHAR GT 21 OR &CH NE (K'&ENDCHAR-5)).ERR3  S22025
&LNGRS   SETA  ((K'&ENDCHAR-5)/2)                                S22025
         AIF   (&IEDQZA(4)).SND                                  S22025
         AGO   .CKBLK                                            S22025
.OPFD1   ANOP                                                    S22025
         AIF   (&IEDQZA(4)).ERR3                                 S22025
&B(2)    SETB  1                                                 S22025
         AIF   (K'&ENDCHAR LE 8).CKBLK                           S22025
.ERR3    MNOTE 12,'*** IHB300 &TEMP    OPERAND INVALID AS SPECIFIED'
         AGO   .MEND                                             S22025
.TSOCHK  ANOP                                                    S22026
         AIF   ((&IEDQZA(2) AND NOT &IEDQZA(4) AND NOT &IEDQZA(5)) OR &X
               IEDQZA(4)).CHECK .                                S22026
         MNOTE 12,'*** IHB070 SEQUENCE ERROR - MUST FOLLOW OUTHDR, INBLX
               OCK OR OUTBUF MACRO' .                            S22026
         AGO   .MEND                                           @OX12571
.CHECK   AIF   (&IEDQZA(14)).CKBLK                               S22025
&LCIN    SETB  ('&LC' EQ 'IN')                                   S22024
         AIF   (&LCIN).CKBLK                                     S22024
         AIF   ('&ENDCHAR' EQ '' AND '&COUNT' EQ '').OP          S22025
         AIF   ('&ENDCHAR' NE '' AND '&COUNT' NE '').CK10        S22025
         MNOTE 12,'*** IHB001 REQUIRED OPERAND NOT SPECIFIED ***'
         AGO   .MEND                                             S22025
.CK10    AIF   ('&BLOCK' EQ '' AND '&SUBBLCK' EQ '').CKCNT       S22025
         AGO   .ERR4                                             S22025
.CKCNT   AIF   ('&COUNT'(1,2) NE 'X''').BBB                      S22025
         AIF   (K'&COUNT EQ 5 AND '&COUNT'(5,1) EQ '''').CCC     S22025
.AAA     ANOP                                                    S22025
.ERC     ANOP                                                    S22025
&TEMP    SETC  'COUNT'                                           S22025
         AGO   .ERR3                                             S22025
.CCC     ANOP                                                    S22025
&HEX     SETB  1                                                 S22025
&OUT     SETB  1                                                 S22025
         AGO   .CKENDC                                           S22025
.BBB     AIF   ('&COUNT'(1,4) NE 'XL1''').DEC                    S22025
         AIF   (K'&COUNT NE 7 OR '&COUNT'(7,1) NE '''').AAA      S22025
&HEX     SETB  1                                                 S22025
&OUT     SETB  1                                                 S22025
         AGO   .CKENDC                                           S22025
.DEC     ANOP                                                    S22025
&A       SETC  '&COUNT'                                          S22025
&AA      SETA  &A                                                S22025
         AIF   (&AA GT 255).AAA                                  S22025
&OUT     SETB  1                                                 S22025
         AGO   .CKENDC                                           S22025
.OP      AIF   ('&BLOCK' EQ '').SUB
.CKBLK   ANOP                                                    S22025
         AIF   (&OUT).SND                                        S22025
         AIF   ('&BLOCK' EQ '0' OR '&BLOCK' EQ 'X''0''' OR '&BLOCK' EQ *
               'X''00''' OR '&BLOCK' EQ 'X''000''' OR '&BLOCK' EQ 'X''0*
               000''').ERR
         AIF   ('&BLOCK' EQ 'XL1''0''' OR '&BLOCK' EQ 'XL1''00''' OR '&*
               BLOCK' EQ 'XL1''000''' OR '&BLOCK' EQ 'XL1''0000''').ERR
         AIF   ('&BLOCK' EQ 'XL2''0''' OR '&BLOCK' EQ 'XL2''00''' OR '&*
               BLOCK' EQ 'XL2''000''' OR '&BLOCK' EQ 'XL2''0000''').ERR
         IEDQMASK &BLOCK,2
         AIF   ((&IEDQZA(2) AND NOT &IEDQZA(4) AND NOT &IEDQZA(5)) OR &*
               IEDQZA(4)).SUB                                  @XA07490
         IEDQVCON (47,38,16),(IEDQAK,IEDQAF,IEDQAO)              S22025
         IEDQVCON (55),IEDQBN                                    S22025
         CNOP  0,4                                               S22025
         BAL   1,*+20                                            S22025
         DC    AL1(&IEDQZE(47)),AL1(16)                          S22025
         AIF   ('&BLOCK'(1,1) EQ 'X').XDC                        S22025
         DC    AL2(&BLOCK)                                       S22025
         AGO   .FINPARM                                          S22025
.XDC     DC    &BLOCK                                            S22025
.FINPARM ANOP                                                    S22025
         DC    AL1(&IEDQZE(55)+1) .                              S22025
         DC    BL1'&B(8)&B(7)&B(6)&B(5)&B(4)&B(3)&B(2)&B(1)'     S22025
         DC    AL1(&IEDQZE(38)),AL1(&IEDQZE(16))                 S22025
         DC    F'0'                     QCB FOR MSGFORM          S22025
         AIF   (&B(2)).OPFLD                                     S22025
         IEDQCHAR 8,&ENDCHAR                                     S22025
         AIF   (NOT &IEDQZA(24)).SKIP5                           S22025
.FFF     ANOP                                                    S22025
&TEMP    SETC  'ENDCHAR'                                         S22025
         AGO   .ERR3                                             S22025
.SKIP5   AIF   (&IEDQZD GT 8).FFF                                S22025
&C       SETC  '&SYSECT'                                         S22025
IEDQMISC CSECT                                                   S22025
         DC    &ENDCHAR                                          S22025
&C       CSECT                                                   S22025
         DC    AL1(&IEDQZD),AL3(IEDQMISC+&IEDQZK)                S22025
&IEDQZK  SETA  &IEDQZK+&IEDQZD                                   S22025
         AGO   .LINK                                             S22025
.OPFLD   IEDQVCON (31),IEDQAE                                    S22025
         DC    AL1(&IEDQZE(31)),AL1(4)                           S22025
         DC    AL1(&ENDCHAR),AL1(16)                             S22025
.LINK    ANOP                                                    S22025
         L     15,IEDUI                                          S22025
         BALR  14,15                                             S22025
         AGO   .MEND                                             S22025
.ERR     MNOTE 12,'***  IHB300  BLOCK OPERAND INVALID AS SPECIFIED'
&NOGO    SETB  1
.SUB     AIF   ('&SUBBLCK' EQ '').SND
         AIF   ('&SUBBLCK' EQ '0' OR '&SUBBLCK' EQ 'X''0''' OR '&SUBBLC*
               K' EQ 'X''00''' OR '&SUBBLCK' EQ 'XL1''0''' OR '&SUBBLCK*
               ' EQ 'XL1''00''').ERR1
         IEDQMASK &SUBBLCK,1
         AIF   (NOT &IEDQZA(24)).SND
.ERR1    MNOTE 12,'***  IHB300  SUBBLOCK OPERAND INVALID AS SPECIFIED'
&NOGO    SETB  1
.SND     AIF   ('&SENDTRP' EQ '').ERR2
         AIF   ('&SENDTRP' EQ 'YES' OR '&SENDTRP(1)' EQ 'YES').CONS
         AIF   ('&SENDTRP' EQ 'NO' OR '&SENDTRP(1)' EQ 'NO').ORG
.ERR2    MNOTE 12,'***  IHB300  SENDTRP OPERAND INVALID AS SPECIFIED'
&NOGO    SETB  1
.CONS    ANOP                                                    S22024
         AIF   ('&LC' EQ 'OUT').LCOK                           @OZ32771
         MNOTE 12,'***  IHB300  LC OPERAND INVALID AS SPECIFIED' S22024
&NOGO    SETB  1                                                 S22024
.LCOK    AIF   (&LCIN AND NOT &IEDQRN(1)).ERRLC                  S22024
         AIF   (&LCIN AND ('&SUBBLCK' NE '' OR '&ENDCHAR' NE ''        *
               OR '&COUNT' NE '')).ERRLC                         S22024
         AIF   (&LCIN AND '&BLOCK' NE '' AND '&SENDTRP' EQ             *
               'NO').ERRLC                                       S22024
         AIF   ('&SUBBLCK' NE '' OR '&COUNT' NE '').INCON        S99238
         AGO   .ORG
.INCON   MNOTE 12,'***  IHB066  INCONSISTENT OPERANDS'
&NOGO    SETB  1
.ORG     AIF   (&NOGO).MEND
         IEDQVCON (46,47,38,16),(IEDQA6,IEDQAK,IEDQAF,IEDQAO)    S22025
         AIF   ('&SENDTRP' EQ 'YES').PAD2                        S99238
         AIF   ('&SENDTRP' EQ 'NO').B                            S99238
         AIF   ('&SENDTRP(1)' EQ 'YES' AND '&SENDTRP(2)' EQ 'PAD').PAD2
         AIF   ('&SENDTRP(1)' EQ 'YES' AND '&SENDTRP(2)' EQ 'NOPAD').NO
         AIF    ('&SENDTRP(1)' EQ 'NO').B                        S99238
         AGO   .ERR2                                             S99238
.NO      ANOP                                                    S99238
&S       SETA  3                                                 S99238
         AGO   .CHECKIT                                          S99238
.PAD2    ANOP                                                    S99238
&S       SETA  1                                                 S99238
.CHECKIT ANOP                                                    S99238
         AIF   (&IEDQZA(31)).B
         ORG   IEDA3
         DC    V(IEDQGT)                                       @OZ26266
         ORG
&IEDQZA(31) SETB 1
.B       AIF   (NOT &OUT).CONT2                                  S22025
         AIF   (&LNGRS NE 1).FFF                                 S22025
.OUTDC   ANOP                                                    S22025
&IEDQZA(23) SETB 1             VARIABLE BLOCK ON OUTPUT          S22025
         CNOP  0,4                                               S22025
&NAME    BAL   1,*+8                                             S22025
         DC    AL1(&IEDQZE(46)+2),AL1(4)                         S22025
         AIF   (NOT &HEX).DECDC                                  S22025
         DC    &ENDCHAR,&COUNT                                   S22025
         AGO   .L                                                S22025
.DECDC   DC    &ENDCHAR,AL1(&COUNT)                              S22025
         AGO   .L                                                S22025
.CONT2   AIF   ('&SUBBLCK' EQ '').CHKB                           S22025
&I       SETA  &I+1
.CHKB    AIF   ('&BLOCK' EQ '').CHKLC                            S22024
&I       SETA  &I+2
.CHKLC   AIF   (NOT &LCIN).GEN                                   S22024
&I       SETA  &I+1                                              S22024
&S       SETA  &S+2                                              S22024
.GEN     AIF   (&I EQ 2).S2
         AIF   (&I NE 5).S4
&L       SETA  &L+2
.S4      ANOP
&L       SETA  &L+2
.S2      ANOP
&L       SETA  &L+2
.BAL     ANOP
&NAME    BAL   1,*+4+&L
         DC    AL1(&IEDQZE(46)+&S),AL1(&I)
         AIF   ('&BLOCK' NE '').GENB
         AIF   (&I EQ 2).L
.GS      AIF   (&LCIN).LC1                                       S22024
         AIF   ('&SUBBLCK'(1,1) EQ 'X').SB                       S22024
         DC    AL1(&SUBBLCK),AL1(0)
         AGO   .L
.SB      DC    &SUBBLCK,AL1(0)
         AGO   .L
.LC1     DC    CL1'I',AL1(0)                                     S22024
         AGO   .L                                                S22024
.GENB    AIF   ('&BLOCK'(1,1) EQ 'X').SS
         DC    AL2(&BLOCK)
         AGO   .CHKS
.SS      AIF   ('&BLOCK'(1,4) EQ 'XL1''' AND K'&BLOCK LE 7).PAD
         AIF   ('&BLOCK'(1,4) EQ 'XL2''').NOPAD
         AIF   (K'&BLOCK LE 5).PAD
.NOPAD   DC    &BLOCK
         AGO   .CHKS
.PAD     DC    AL1(0),&BLOCK
.CHKS    AIF   (&I EQ 5).GS
.L       L     15,IEDUI
         BALR  14,15
&IEDQZA(26) SETB 1
.MEND    SPACE 2
         MEND
