         MACRO
&NAME    RETRY &INTVL= .
         GBLA  &IEDQZE(64) .
         GBLB  &IEDQZA(64) .
         LCLB  &NOGO .
.*             VERSION DATED OCTOBER 26, 1971
         SPACE 2 .
         AIF   (&IEDQZA(1) AND &IEDQZA(5)).CHK .
         MNOTE 12,'*** IHB070 SEQUENCE ERROR- MUST FOLLOW INMSG MACRO'
&NOGO    SETB  1 .
.CHK     ANOP .
         AIF   ('&INTVL' NE '').INTOK .
         MNOTE 12,'*** IHB004 REQUIRED OPERAND(S) NOT SPECIFIED'
&NOGO    SETB  1 .
.INTOK   ANOP .
         AIF   ('&INTVL'(1,1) LT '1' OR '&INTVL'(1,1) GT '9').INTERR
         AIF   ('&INTVL' LT '1' OR '&INTVL' GT '65535').INTERR .
         IEDQMASK &INTVL,2 .
         AIF   (NOT &IEDQZA(24)).AND .
.INTERR  ANOP .
         MNOTE 12,'*** IHB300 INTERVAL OPERAND INVALID AS SPECIFIED'
&NOGO    SETB  1 .
.AND     ANOP .
         AIF   (&NOGO).MEND .
&IEDQZA(18)  SETB  1 .
         IEDQVCON 52,IEDQA9 .
&NAME    DC    AL1(&IEDQZE(52)+1),AL1(4) .
         DC    AL2(&INTVL) .            INTERVAL VALUE
.MEND    ANOP .
         SPACE 2 .
         MEND
