         MACRO
&NAME    TSINPUT
         GBLB  &IEDQZA(64),&IEDQZZ(16)                           S22028
         GBLB  &IEDQRN(8)                                        Y06327
         LCLB  &IEDLERR
         LCLC  &IEDLN
         LCLC  &XX                                               S22029
.*       VERSION DATED SEPT 1,1973                               Y06327
.*A100000                                                        Y06327
.*A6000000,660000,749700-749860                                  Y06327
.*C170000                                                        Y06327
.*A749300-749800                                                 A22028
.*C090000,170000                                                 A22028
.*A160000,744400-749200                                          A22029
.*A720000                                                        A44022
.*C744000                                                        P00461
.*A510000                                                       SA61077
.*C510000                                                        X02004
.*A749980                                                      @YM06172
.*C749990                                                      @YM06977
.*A749980                                                      @G36XRYP
.*A747900,748200                                               @OZ47458
.CHECKA  AIF   (&IEDQZA(51)).CHECKB
         MNOTE 12,'***  IHB312  MUST FOLLOW INTRO MACRO WITH ENVIRON=TS-
               O OR ENVIRON=MIXED'
&IEDLERR SETB  1
.CHECKB  AIF   (NOT &IEDQZA(21)).GEN
         MNOTE 12,'***  IHB311  TSINPUT MACRO PREVIOUSLY SPECIFIED'
&IEDLERR SETB  1
.GEN     AIF   (&IEDLERR).END
&IEDQZA(21) SETB 1
&IEDLN   SETC  '&SYSECT'
IEDQTRMC CSECT
         DS    0F                                               SA61077
IEDAYTSQ DC    AL1(2),AL3(0),X'E4',AL3(0)
         DC    V(IEDAYI,IEDAYT) .       TSINPUT, STAE ROUTINES
         DC    V(IEDAYE,IEDAYH) .       EDIT, HANGUP ROUTINES
         AIF   (&IEDQRN(2)).O3705                                Y06327
         DC    V(IEDAYS,IEDAYZ),2A(0) . SIMATTN, SCHEDULER ROUT@ZM46793
         DC    V(IEDAYP,IEDAYM,IEDAYF) .MPOST,MSGGEN,HALT      @ZM46793
         AGO   .O270X                                            Y06327
.O3705   ANOP                                                    Y06327
         DC    V(IEDAYS),3A(0) .        SIMATTN                @ZM46793
         DC    V(IEDAYP,IEDAYM),A(0) .  POST AND MSGGEN        @ZM46793
.O270X   ANOP                                                    Y06327
IEDAYDQB DC    AL1(2),AL3(IEDAYDQB)  .  TIME DLY QCB REMOVAL RTN'S QCB
         DC    X'EC',AL3(0),AL1(0),VL3(IEDAYY)
         DC    X'64',AL3(IEDTSIAB)          AQCTL PARM LIST      A44022
IEDTSIAB DC    X'80',AL3(IEDTSIAB)     PARM LIST ELEMENT         A44022
         DC    X'FF',AL3(0)        PRIORITY LINK FIELD           A44022
         DC    V(IEDAYAB)           STCB ADDRESS                 P00461
         AIF   (&IEDQZA(52)).TSO0010                             S22029
         DC    3A(0)                                             S22029
         AGO   .TSO0030                                          S22029
.TSO0010 ANOP                                                    S22029
         AIF   (&IEDQZA(41) EQ &IEDQZA(42)).TSO0020              S22029
&XX      SETC  '2'                                               S22029
         AIF   (&IEDQZA(41)).TSO0020                             S22029
&XX      SETC  '1'                                               S22029
.TSO0020 ANOP                                                    S22029
         DC    V(IEDQHM&XX,IEDQFA&XX,IEDQFQ)                     S22029
.TSO0030 ANOP                                                    S22029
         DC    V(IEDAYA) .             TSO ATTENTION ROUTINE     S22029
         DC    V(IEDAYD) .             TSO DESTINATION SCHEDULER S22029
         AIF   (&IEDQRN(4)).SNAAYQ      SNA REQUIRES IEDAYQ    @OZ47458
         AIF   (NOT &IEDQZZ(1)).N3270                            S22028
.SNAAYQ  ANOP                                                  @OZ47458
         DC    V(IEDAYQ)                3270 EDITING MODULE    @G36XRYU
         AGO   .CONTINU                                          S22028
.N3270   ANOP                                                    S22028
         DC    A(0)                                              S22028
.CONTINU ANOP                                                    S22028
         AIF   (&IEDQRN(2)).N270X                                Y06327
         DC    V(IEDAYW)                270X OUTPUT EDIT MODULE  Y06327
         AGO   .CONTIN2                                          Y06327
.N270X   ANOP                                                    Y06327
         DC    A(0)                                              Y06327
.CONTIN2 ANOP                                                    Y06327
         AIF   (NOT &IEDQRN(1)).N3705                            Y06327
         DC    V(IEDAYV)                3705 OUTPUT EDIT MODULE  Y06327
         DC    V(IEDAYJ)                3705 TSO SCHEDULER       Y06327
         AGO   .CONTIN1                                          Y06327
.N3705   ANOP                                                    Y06327
         DC    A(0)                                              Y06327
         DC    A(0)                                              Y06327
.CONTIN1 ANOP                                                    Y06327
         DC    V(IEDAYO)                TSOUTPUT ADDRESS       @G36XRYP
         DC    V(IEDAYO02)              TSOUTPUT CLEANUP QCB   @G36XRYP
         DS    CL62                     EDIT WORK AREA         @YM06977
&IEDLN   CSECT
.END     SPACE 2
         MEND
