         MACRO
&NAME    TYPETABL &MTYPE,&ROUTINE=
         GBLA  &IEDQZK
         LCLA  &A,&B
         LCLC  &C
&C       SETC  '&SYSECT'
         AIF   ('&ROUTINE' NE '').CKRTNE
         MNOTE 12,'***  IHB001  ROUTINE OPERAND REQUIRED - NOT SPECIFIE*
               D'
         AGO   .CKTYPE
.CKRTNE  ANOP
         AIF   ('&ROUTINE'(1,1) LE 'Z').CKTYPE
         MNOTE 12,'***  IHB300  ROUTINE OPERAND INVALID AS SPECIFIED'
.CKTYPE  ANOP
         AIF   ('&MTYPE' NE '').CKNEW
         MNOTE 12,'***  IHB001  MSG TYPE OPERAND REQUIRED - NOT SPECIFI*
               ED'
         AGO   .GOOD1
.CKNEW   ANOP
IEDQMISC CSECT
         AIF   ('&NAME' EQ '').OLD
         CNOP  0,4
&A       SETA  8
.*                             ADJUST IEDQZK FOR CNOP
&B       SETA  &IEDQZK
.DIV100  ANOP
         AIF   (&B LT 100).DIV4
&B       SETA  &B-100
         AGO   .DIV100
.DIV4    ANOP
         AIF   (&B LT 4).COMPUTE
&B       SETA  &B-4
         AGO   .DIV4
.COMPUTE ANOP
         AIF   (&B EQ 1).THREE
         AIF   (&B EQ 3).ONE
         AGO   .CKK
.THREE   ANOP
&B       SETA  3
         AGO   .CKK
.ONE     ANOP
&B       SETA  1
         AGO   .CKK
.OLD     ANOP
&A       SETA  4
         ORG   *-4
.CKK     ANOP
         AIF   (K'&MTYPE GT 1).CKFORM
&NAME    DC    C'&MTYPE' .              MSGTYPE
         AGO   .RTNADR
.CKFORM  AIF   ('&MTYPE'(1,2) EQ 'X''').CKX
         AIF   ('&MTYPE'(1,2) EQ 'C''').CKC
         AIF   ('&MTYPE'(1,4) EQ 'XL1''').CKXL
         AIF   ('&MTYPE'(1,4) EQ 'CL1''').CKCL
         AGO   .ERR2
.CKX     AIF   ('&MTYPE'(5,1) EQ '''' AND K'&MTYPE EQ 5).GOOD1
         AGO   .ERR2
.CKC     AIF   ('&MTYPE'(4,1) EQ '''' AND K'&MTYPE EQ 4).GOOD1
         AGO   .ERR2
.CKXL    AIF   ('&MTYPE'(7,1) EQ '''' AND K'&MTYPE EQ 7).GOOD1
         AGO   .ERR2
.CKCL    AIF   ('&MTYPE'(6,1) EQ '''' AND K'&MTYPE EQ 6).GOOD1
         AGO   .ERR2
.GOOD1   ANOP
&NAME    DC    &MTYPE .                 MSG TYPE
.RTNADR  DC    AL3(&ROUTINE) .          ROUTINE ADR
         DC    AL4(1) .                 OVERLAY AREA/EOTABLE IND
&C       CSECT
&IEDQZK  SETA  &IEDQZK+&A+&B
         AGO   .MEND
.ERR2    MNOTE 12,'***  IHB300  MSG TYPE OPERAND INVALID AS SPECIFIED'
.MEND    ANOP
         MEND
