         MACRO
&NAME    IFDCOM &RELEASE=MVM22                                   Y02008
         LCLC  &V,&X,&Z,&S                                      X01906
&S       SETC  '&RELEASE'                                       X01906
&V       SETC  'DS'
&X       SETC  'C'
&Z       SETC  ' '
         IFDPATCH
         EJECT
         AIF   (T'&NAME EQ 'O').SKP1
&NAME    DSECT
         IFDPF1 &V,&X,&Z,&S                                     X01906
         EJECT
         CSECT
         MEXIT
.SKP1    ANOP
         MNOTE 8,'NAME FIELD MISSING, NO STATEMENTS GENERATED'
         MEND
