         MACRO
&NAME    IFDMOD &LOAD=,&CALL=,&DELETE=,&LIST=,&C=2
*/***********************************************************@ZM00952*/
*/*           IFDMOD                                         @ZM00952*/
*/*OLTEP VS2                                                 @ZM00952*/
*/*                                                          @ZM00952*/
&NAME    BRING LOAD=&LOAD,CALL=&CALL,DELETE=&DELETE,LIST=&LIST,C=&C
         MEND
