         MACRO
&NAME    PWTOR &MT=,&MSG=,&REG=,&WAIT=YES,&SIZE=
&NAME    CMWTO MT=&MT,MSG=&MSG,REG=&REG,WAIT=&WAIT,DISP=24,SIZE=&SIZE
         MEND
