         MACRO
&NAME    WRTRP &SIZE=,&DISP=
         AIF   (T'&SIZE NE 'O').A1
         MNOTE 8,'SIZE NOT STATED'
         MEXIT
.A1      ANOP
         AIF   ('&SIZE'(1,1) EQ '(').A2
&NAME    LA    R1,&SIZE .                  LENGTH OF MESSAGE
         AGO   .A3
.A2      ANOP
         AIF   ('&SIZE'(1,3) EQ '(1)').A4
&NAME    LR    R1,&SIZE .                  LENGTH OF MESSAGE
         AGO   .A3
.A4      ANOP
&NAME    L     R15,PARPRADR .           ENTRY TO PARALLEL PRINT
         AGO   .A5
.A3      ANOP
         L     R15,PARPRADR .           ENTRY TO PARALLEL PRINT
.A5      ANOP
         LA    R15,&DISP.(R15) .            ENTRY POINT IN DPRINT
         BALR  R14,R15 .                LINK TO MODULE
         MEND
