         MACRO
&NAME    CDL   &PGM=,&TASKDSN=,&ADL=0,&OPTLIST=0,&SDL=0,&ID=,          X
               &INSERT=
         GBLC  &IDENT
         AIF   ('&NAME' EQ '').A
&IDENT   SETC  '&NAME'(1,4)
.A       AIF   ('&ID' EQ '').B
&IDENT   SETC  '&ID'(1,4)
.B       ANOP
&NAME    DS    0F
         DC    CL8'&PGM '          PROGRAM NAME
         STRING &TASKDSN           TASKLIB DSNAME
         DC    A(&ADL)             ADDR OF ALTERNATE DDNAME LIST
         DC    A(&OPTLIST)         ADDR OF OPTION LIST
         DC    A(&SDL)             ADDR OF SPECIAL DDNAME LIST
         STRING &INSERT       ADDR OF PARM INSERT STRING
         MEND
