         MACRO
&NAME    DAIRPB &DSN=,&MEMBER=,&DDNAME=,&SPACE=,&DISP=,&CONTROL=,      X
               &VOLUME=,&UNIT=
         GBLC  &LLIST
&NAME    DS    0F
         DC    H'8,0,0,0'          ENTRY CODE, RETURN CODES
         STRING &DSN
         DC    CL8'&DDNAME '       DDNAME
         DC    CL8'&UNIT '              UNITNAME
         DC    CL8'&VOLUME '             VOLUME SERIAL NUMBER
         LIST  &SPACE,MAX=4,MIN=4
         DC    F'&LLIST'           BLOCK, PRIMARY, SECONDARY, DIRECTORY
         DC    CL8'&MEMBER '       MEMBER NAME
         DC    CL8' '              PASSWORD
         LIST  &DISP,PREFIX=DA08,MAX=3,MIN=3
         DC    AL1(&LLIST)         STATUS, DISP, COND'L DISP
         LIST  &CONTROL,PREFIX=DA08,SEP='+',MAX=5
         DC    AL1(&LLIST)         CONTROL FLAGS
*    INCLUDE GPP(GPPOBJ)
         MEND
