         MACRO
         GENSTR &OPT=3
         GBLA  &STRCNT,&TOTSTR,&STRLEN
         GBLC  &STRINGS(150),&IDS(150),&IDENT
         LCLA  &I,&J,&M,&N,&K,&L,&A,&B
         LCLC  &NAME
&NAME    SETC  'ST'
&I       SETA  1
&N       SETA  &TOTSTR-&STRCNT+1
         AGO   .GEN
.INCR    ANOP
&I       SETA  &I+1
         AIF   (&I LT 100).NAMOK
&NAME    SETC  'S'
.NAMOK   ANOP
&N       SETA  &TOTSTR-&STRCNT+&I
         AIF   (&I GT &STRCNT).END
         AIF   (&OPT EQ 1).GEN
&J       SETA  0
         AIF   (&OPT LE 2).INCRJ
&K       SETA  K'&STRINGS(&I)-2
.INCRJ   ANOP
&J       SETA  &J+1
&M       SETA  &TOTSTR-&STRCNT+&J
         AIF   (&J GE &I).GEN
         AIF   ('&STRINGS(&I)' EQ '&STRINGS(&J)').EQU
         AIF   (&OPT LE 2).INCRJ
&L       SETA  K'&STRINGS(&J)-2
         AIF   ('&STRINGS(&I)'(2,&K) NE '&STRINGS(&J)'(2,&K)).INCRJ
.EQU     ANOP
&IDS(&I)&NAME&N  EQU   &IDS(&J)ST&M
&A       SETA  &A+1
         AGO   .INCR
.GEN     ANOP
&IDS(&I)&NAME&N  DC    C&STRINGS(&I)
&B       SETA  &B+1
         AGO   .INCR
.END     ANOP
&STRCNT  SETA  0
&I       SETA  &A+&B
         MNOTE *,'&I STRINGS DEFINED, &A OF THEM EQUATED, &B DECLARED'
         MNOTE *,'&TOTSTR TOTAL STRINGS DECLARED TO DATE'
         MEND
