         TITLE ' >>> G P P  -  GENERAL PURPOSE PROMPTER FOR TSO <<<'
*
*  MSG - MACRO TO GENERATE AN ERROR MESSAGE
*
         MACRO
&NAME    MSG   &TEXT,&L
         LCLA  &N
&N       SETA  K'&TEXT-2
&NAME    DC    AL1(&N)             LENGTH OF MESSAGE TEXT
         DC    C&TEXT              ERROR MESSAGE
         AIF   ('&L' EQ '').END
L&NAME   EQU   *-&NAME
.END     SPACE 1
         MEND
         SPACE 10
*
*        LOCAL WORKAREA
*
WORKAREA DSECT
         SPACE
SAVEAREA DS    18F
         SPACE
PARMCNT  DS    H
PARMFLD  DS    CL256
         SPACE
         CNOP  6,8
ADLIST   DS    H
         DS    12D
         EJECT
PARMPTR  DS    F
ALTDPTR  DS    F
ATTACH   ATTACH EPLOC=DUMMY,SF=L
         SPACE 3
XCTL     XCTL  EPLOC=DUMMY,SF=L
         ORG   XCTL
TASKDCB  DCB   DSORG=PO,MACRF=(R),DDNAME=DUMMY
         SPACE
DCB      EQU   TASKDCB
PGMECB   DS    F
TCBSAVE  DS    F                   POINTER TO TCB
OPENCLOS DS    F              OPEN CLOSE LIST
         SPACE
ENDMAIN  EQU   *
         SPACE
CMDLEN   DS    H
CMDFLD   DS    CL256               COPY OF COMMAND
STRLEN   DS    H
STRING   DS    CL50
OSTRLEN  DS    H
SUBSTRLN DS    H
SUBSTR   DS    CL50
         SPACE
CPPLSAVE DS    F
PARMSAVE DS    F
         SPACE
DAIRRC   DS    F                   DAIR RETURN CODE
         SPACE
TEMP     DS    CL8
         SPACE
STACKPB  DS    2F
STACKPL  DS    4F
STACKECB DS    F
         SPACE
DAFLPL   DS    4F                  DAIR FAIL PARAMETER LIST
         SPACE
DAIRECB  DS    F
         SPACE
DDNAME   DS    CL8
         SPACE
         DS    0H
DSNAME   DS    0CL46
DSNLEN   DS    H
DSN      DS    CL44
         SPACE
BASICLEN DS    H                   LENGTH OF BASIC DSNAME
BASICDSN DS    CL44                BASIC DATASET NAME
BASICMEM DS    CL8                 BASIC MEMBER NAME
         SPACE
NEWSPACE DS    0H                  SPACE FOR SPACE
NEWAVLTH DS    H                   AVERAGE BLOCK LENGTH
NEWPRIME DS    H                   PRIMARY SPACE QUANTITY
NEWSEC   DS    H                   SECONDARY SPACE QUANTITY
         SPACE
NEWVOL   DS    CL8                GENERIC VOLUME SERIAL
         SPACE
MEMLIST  DS    34H                 BLDL MEMBER NAME LIST
PFIRST   DS    X
PASS     DS    X                   FIRST OR SECOND PASS BY OPTIONS
         SPACE
SW       DS    X
OFF      EQU   X'00'
ON       EQU   X'FF'
ONP      EQU   X'0F'
         SPACE
FLAGS    DS    X
NEW      EQU   128
*NOALTDD    EQU   64          NO FRICKING ALTDD FOR THIS OPTION
NULLDS   EQU   32
MEMBERED EQU   16
QUOTED   EQU   8
STARRED  EQU   4
*PDS     EQU   2
OLD      EQU   1
         SPACE
FIRSTCH  DS    X                   FIRST CHARACTER SWITCH
         SPACE
SINQED   DS    X                   SYSIN QUOTED SWITCH
         SPACE
FLAGS2   DS    X
GOTBASIC EQU   1
BASICQED EQU   2
SPCLDSN  EQU   4                   PROCESSING SPECIAL DATASETS
FLAGSUMW DS    X              EXTENTION OF FLAGS
WASRP    EQU   1              MEMBER NAME ENDED IN RIGHT PARENTHESIS
XTRAQUAL EQU   2              QUALIFIER WAS ADDED TO USERS DSN
VOLLED   EQU   4              DSN HAS :VOLSER
TDOTTED EQU   8              DSN HAS TRAILING DOT
LDOTTED  EQU   16             DSN HAS LEADING PERIOD
PSWDDED  EQU   32             DSN HAS /PASSWORD
         SPACE
EXQUOTE  DS    C              QUOTE IF = FOLLOWED BY ' OR " ELSE BLANK
EXLASTCH DS    C              CHARACTER BEFORE CURRENT ONE
EXVAR    DS    C              FLAG  INDICATES SCRIPT VAR
         SPACE
EXDEPTH  DS    X                   EXTRACT PAREN DEPTH
         SPACE
ALFLAGS  DS    X                   ALLOCATION FLAGS
BADSN    EQU   1                    INVALID DATASET NAME
FREE     EQU   2                    DATASET IS TO BE FREED
MAYBBAD  EQU   4              PERHAPS BAD. TRY WITHOUT QUAL
         EJECT
SAVE0    DS    10F
ALSAVE   EQU   SAVE0
         SPACE
SAVE1    DS    10F                 FIRST LEVEL SUBROUTINE SAVE AREA
GDSAVE   EQU   SAVE1
DSSAVE   EQU   SAVE1
SPSAVE   EQU   SAVE1
INSAVE   EQU   SAVE1
MNSAVE   EQU   SAVE1
SDSAVE   EQU   SAVE1
SRSAVE   EQU   SAVE1
SCSAVE   EQU   SAVE1
CDSAVE   EQU   SAVE1
GMSAVE   EQU   SAVE1
EXSAVE   EQU   SAVE1
IDPSAVE  EQU   SAVE1
CLNSAVE  EQU   SAVE1
DISAVE   EQU   SAVE1
SBSAVE   EQU   SAVE1
         SPACE
SAVE2    DS    10F                 SECOND LEVEL SUBROUTINE SAVE AREA
D18SAVE  EQU   SAVE2
DNSAVE   EQU   SAVE2
SMSAVE   EQU   SAVE2
         SPACE
DAIRPB18 DS    10F                 DAIR PB FOR FREEING STUFF
         SPACE
         SPACE
DAIRPB   DS    19F                 DAIR PARAMETER BLOCK
DPBLEN   EQU   *-DAIRPB
DAIRPL   DS    5F                  DAIR PARAMETER LIST
         SPACE
ENTRDAIR DS    F                   ENTRY POINT TO DAIR
ENTRPUTL DS    F                   ENTRY POINT TO PUTLINE
         SPACE
MEMPTR   DS    A              INDEX OF START OF USER ENTERED MEMBER
PASPTR   DS    A              INDEX OF START OF USER ENTERED PASSWORD
VOLPTR   DS    A              INDEX OF START OF USER ENTERED VOLSER
MEMNAME  DS    CL8            MEM ENTERED BY USER (MEMNAME)
PASSWD   DS    CL8            PSWD ENTERED BY USER /PASSWORD
VOLID    DS    CL8            VOLSER ENTERED BY USER :VOLSER
         SPACE
DTEMP    DS    CL8
         SPACE
OFLAGS   DS    10X
         SPACE
MSGAREA  DS    CL80                AREA FOR MESSAGE TEXT TO BE UPDATED
         SPACE
INMSGLEN DS    H
INMSG    DS    CL80                AREA TO READ MSEEAGE FROM TERMINAL
         SPACE
HELP     DS    CL81
LISTSW   DS    X
LASTDD   DS    F
DDSAV    DS    F
CONCATPL DS    CL20
CONCATPB DS    CL12
DDLIST   DS    20F
CTLGDSN  DS    CL50
WCAMLIST CAMLST   UCATDX,CTLGDSN
*LCAMLIST CAMLST  NAME,CTLGDSN,,LOCAREA  FOR LOCATE BY DSNAME
*LOCAREA  DS    0D             FOR LOCATE
*         DS    256C
WORKSZ   EQU   *-WORKAREA
WORK2SZ  EQU   *-ENDMAIN
         EJECT
*
*        VARIOUS DESECTS
*
CBUF     DSECT ,                   DSECT FOR COMMAND BUFFER
CBUFLEN  DS    H                   LENGTH OF THIS DSECT
CBUFOFF  DS    H                   OFFSET TO FIRST BYTE AFTER CMD NAME
CBUFCMD  DS    0C                  CHARACTER STRING FROM TERMINAL
         SPACE 3
CDL      DSECT ,                   DSECT FOR COMMAND DESCRIPTOR LIST
CDLPGM   DS    CL8                 NAME OF ASSOCIATED PROGRAM
CDLTDSN  DS    A                   ADDR OF TASKLIB DSNAME, IF ANY
CDLADL   DS    A                   ADDR OF ALTERNATE DDNAME LIST
CDLOPT   DS    A                   ADDR OF OPTION LIST
CDLSDL   DS    A                   ADDR OF SPECIAL DDNAME LIST
CDLINSRT DS    A                  ADDR OF INSERT PARM STRING
         SPACE 3
CPPL     DSECT ,                   DSECT FOR CMD PROCESSOR PARM LIST
CPPLCBUF DS    A                   PTR TO COMMAND BUFFER
CPPLUPT  DS    A                   PTR TO UPT
CPPLPSCB DS    A                   POINTER TO PSCB
CPPLECT  DS    A                   POINTER TO ECT
         SPACE 3
ADL      DSECT ,                   DSECT FOR ALTERNATE DDNAMES
ADLLEN   DS    H                   SIZE OF ADL
ADLDDNAM DS    CL8                 FIRST OF (UP TO 10) DDNAMES
         SPACE 3
OPTIONS  DSECT ,                   DSECT FOR OPTION LIST
OPTNAME  DS    A                   OPTION TO BE CHECKED FOR
OPTQUAL  DS    A                   QUALIFIER TO BE APPENDED TO DSNAME
OPTDAPB  DS    A                   ADDR OF ASSOCIATED DAIR PARM BLOCK
OPTDCB   DS    A                   ADDR OF ASSOCIATED DCB
OPTDFLT  DS    A                   ADDR OF STRING USED BY DEFAULT
OPTPRMPT DS    A                   PROMPT STRING ADDRESS
OPTHELP  DS    A                   HELP STRING ADDRESS
OPTINSRT DS    A                   INSERT STRING ADDRESS
OPTDFINS DS    A                  DEFAULT INSERT STRING
OPTNOINS DS    A                  INSERT IF 'NO' SPECIFIED
OPTCNCAT DS    A                  CONCAT THIS STRING TO RIGHT OF PARM
OPTFLAGS DS    X                   OPTION FLAGS
LAST     EQU   X'01'                 LAST OPTION IN LIST
DEFAULT  EQU   X'02'                 DEFAULT STRING ENTERED
PROMPT   EQU   X'04'                 PROMPT STRING ENTERED
INSERT   EQU   X'08'                 INSERT STRING ENTERED
CONCATST EQU   X'10'              CONCATENATION STRING ENTERED
NOALTDD  EQU   X'40'                   DONT GENERATE DAIR DDNAME
OPTALLOC DS    X                   ALLOCATION FLAGS
*OLD     EQU   1                     DATASET MUST BE OLD
*PDS     EQU   2                     DATASET MUST BE A PDS
OPTSPACE DS    3H                  SPACE TO BE ALLOC'ED FOR NEW DATASET
         DS    0F                  SPACER
OPTLEN   EQU   *-OPTIONS
         EJECT
DAPB08   DSECT
***********************************************************************
* THIS OPERATION CODE CAUSES ALLOCATION OF A DATA SET. IT CAN ALLOC.  *
* EITHER A NEW OR OLD SET.                                            *
***********************************************************************
DA08CD   DS    CL2      DAIR ENTRY CODE
DA08FLG  DS    X        FUNCTIONS TO BE PERFORMED WHEN RET CODE IS 0
DA08FPE  EQU   X'80'    FUNCT PERFORMED BUT ERROR INDICATED BY RETCD
         DS    X
DA08DARC DS    H        DYN ALLOC RETURN CODE
DA08CTRC DS    H        CATALOG RETURN CODE
DA08PDSN DS    A        POINTER TO DSNAME TO BE SEARCHED IN DSE
DA08DDN  DS    CL8      DDNAME TO BE SEARCHED IN DSE
DA08UNIT DS    CL8      UNITNAME REQUESTED
DA08SER  DS    CL8      VOLUME SERIAL NUMBER-PADDED W/BLANKS
DA08BLK  DS    CL4      DATA SET  AVERAGE RECORD LENGTH
DA08PQTY DS    CL4      PRIMARY SPACE QUANTITY
DA08SQTY DS    CL4      SECONDARY SPACE QUANTITY
DA08DQTY DS    CL4      DIRECTORY BLOCK QUANTITY
DA08MNM  DS    CL8      MEMBER NAME
DA08PSWD DS    CL8      PASSWORD
DA08DSP1 DS    X        DATA SET STATUS FLGS(IF=0 OLD ASSUMED)
DA08SHR  EQU   X'08'    DATA SET IS SHR
DA08NEW  EQU   X'04'    DATA SET IS NEW
DA08MOD  EQU   X'02'    DATA SET IS MOD
DA08OLD  EQU   X'01'    DATA SET IS OLD
DA08DPS2 DS    X        DATA SET DISPOSITION(IF=0 KEEP ASSUMED)
DA08KEEP EQU   X'08'    DS DISP IS KEEP
DA08DEL  EQU   X'04'    DS DISP IS DELETE
DA08CAT  EQU   X'02'    DS DISP IS CATLG
DA08UCAT EQU   X'01'    DS DISP IS UNCATALOG
DA08DPS3 DS    X        DATA SET CONDITIONAL DISPOSITION
DA08KEP  EQU   X'08'
DA08DELE EQU   X'04'
DA08CATL EQU   X'02'    DS DISP OF CATLG DESIRED
DA08UNCT EQU   X'01'    DS DISP OF UNCATLG DESIRED
DA08CTL  DS    X        FLAGS TO CONTROL ACTIONS TAKEN BY DAIR
DA08TRKS EQU   X'80'    UNITS ARE TRKS
DA08ABKL EQU   X'40'
DA08CYLS EQU   X'C0'    UNITS ARE CYLS
DA08UID  EQU   X'20'    USER ID IS TO BE PREFIXED
DA08RLSE EQU   X'10'    RELEASE (RLSE) REQUESTED
DA08PERM EQU   X'08'    DATA SET MUST BE SPECIFICALLY UNALLOCATED
DA08DMMY EQU   X'04'
         DS    CL3      RESERVED
DA08DSO  DS    CL1      DSORG
PDS      EQU   X'02'               BIT ON FOR A PDS
         EJECT
DAPB18   DSECT
***********************************************************************
* THIS OPERATION CAUSES THE REQUESTED DATA SET OR DDNAME TO BE        *
* UNALLOCATED. DISPOSITION CAN BE SPECIFIED TO OVERRIDE ANY PREVIOUS  *
* DISPOSITION. LIKENISE SYSOUT CLASS MAY BE SPECIFIED TO OVERRIDE ANY *
* PREVIOUS CLASS.                                                     *
***********************************************************************
DA18CD   DS    CL2      DAIR ENTRY CODE
DA18FLG  DS    X        FUNCTIONS TO BE PERFORMED WHEN RET CODE IS 0
DA18FPE  EQU   X'80'    FUNCT PERFORMED BUT ERROR INDICATED BY RETCD
         DS    X
DA18DARC DS    H                       DYNAMIC ALLOCATION RETURN CODE
DA18CTRC DS    H                  CATALOG RETURN CODE AREA
DA18PDSN DS    A        POINTER TO DSNAME TO BE SEARCHED IN DSE
DA18DDN  DS    CL8      DDNAME TO BE SEARCHED IN DSE
DA18MNM  DS    CL8      MEMBER NAME
DA18SCLS DS    CL2      SYSOUT CLASS DESIRED WHEN UNALLOCATING  A
*                       SYSOUT DATA SET
DA18DPS2 DS    X        DATA SET DISPOSITION
DA18KEEP EQU   X'08'    CHANGE DISP TO KEEP
DA18DEL  EQU   X'04'    CHANGE DISP TO DELETE
DA18CAT  EQU   X'02'    CHANGE DISP TO CATALOG
DA18UCAT EQU   X'01'    CHANGE DISP TO UNCATLOG
DA18CTL  DS    X        FLAGS FOR SPECIAL DAIR PROCESSING
DA18UID  EQU   X'20'    USER ID IS TO BE PREFIXED TO DSNAME
DA18JBNM DS    CL8
         EJECT
DAPB1C   DSECT
***********************************************************************
* THIS OPERATION CODE REQUESTS ALLOCATION TO THE TERMINAL             *
***********************************************************************
DA1CCD   DS    CL2      DAIR ENTRY CODE
DA1CFLG  DS    X        FUNCTIONS TO BE PERFORMED WHEN RET CODE IS 0
         DS    X
DA1CDARC DS    H        DYN ALLOC RETURN CODE
         DS    CL1      RESERVED
DA1CCTL  DS    CL1      CONTROL FIELD
DA1CPERM EQU   X'08'    PERMANENTLY ALLOCATE BIT
DA1CDDN  DS    CL8      DDNAME TO BE SEARCHED IN DSE
         SPACE 3
***********************************************************************
*    THE DYNAMIC ALLOCATION INTERFACE ROUTINE (DAIR) PARAMETER LIST   *
*    (DAPL) IS A LIST OF ADDRESSES PASSED FROM THE INVOKER TO DAIR    *
*    VIA REGISTER 1
***********************************************************************
DAPL     DSECT
         SPACE
DAPLUPT  DS    A        PTR TO UPT
DAPLECT  DS    A        PTR TO ECT
DAPLECB  DS    A        PTR TO CP'S ECB
DAPLPSCB DS    A        PTR TO PSCB
DAPLDAPB DS    A        PTR TO DAIR PARAMETER BLOCK
         EJECT
         DCBD
         EJECT
GPPROMPT CSECT
         SAVE  (14,12),,*          SAVE CALLER'S REGS
         LR    BASE,R15          ESTABLISH
         USING GPPROMPT,BASE        BASE REGISTER
         LA    BASE2,4094(BASE)    GET PTR TO SECOND BASE
         USING GPPROMPT+4094,BASE2  MAKE IT ADDRESSIBLE
         LR    R9,R1               GET PTR TO CPPL
         USING CPPL,R9              MAKE IT ADDRESSIBLE
*
*        GET AND SET UP A WORKAREA
*
         LA    R0,WORKSZ           GET
         GETMAIN R,LV=(0)           WORKAREA
         LR    R4,SAVE             TEMP SAVE FOR SAVE
         LR    RWORK,R1            MAKE IT
         USING WORKAREA,RWORK       ADDRESSIBLE
         ST    RWORK,8(R4)         FORWARD CHAIN
*
*        CLEAR OUR WORKAREA
*
         LA    R5,WORKAREA         GET PTR TO WORKAREA
         LA    R1,WORKSZ           GET COUNT
         BAL   LINK,CLEAR          CLEAR IT
         MVC   BASICLEN,=H'3'  INIT THE BASIC DSN TO TSO
         MVC   BASICDSN,=C'TSO'
         ST    R4,SAVEAREA+4       BACKWARD CHAIN
         ST    R9,CPPLSAVE         SAVE PTR TO CPPL
*
*        BRING IN DAIR
*
         LOAD  EP=IKJDAIR
         ST    R0,ENTRDAIR         SAVE ENTRY POINT
*
*        SET UP PARM LISTS, CLEAN COMMAND, AND OTHER INITIALIZATION
*
         BAL   LINK,SETPL          GO SET UP PL'S
         MVI   PARMFLD,C' '        BLANK OUT THE PROGRAM
         MVC   PARMFLD+1(255),PARMFLD    PARAMETER FIELD
         MVC   CMDFLD,PARMFLD      AND THE COMMAND FIELD
         L     R3,CPPLCBUF         GET PTR TO COMMAND BUFFER
         USING CBUF,R3
         LH    R1,CBUFLEN          GET LENGTH OF COMMAND FIELD
         SH    R1,=H'4'             LESS 4 FOR CTL BLKS
         LA    R2,CBUFCMD          NOW POINT AT COMMAND
         BAL   LINK,CLEANCMD        AND CLEAN UP COMMAND
         DROP  R3
         DROP  R9
         EJECT
*
*        PICK UP COMMAND AS ENTERED
*
DOCMD    DS    0H
         BAL   LINK,EXTRACT        GET COMMAND NAME
         BZ    ERROR                IT MUST BE THERE
         LH    R3,STRLEN           GET ITS LENGTH
         CLI   STRLEN+1,2
         BNE   CMDADDR        NOT POSSIBLE TO BE GPP
         CLC   STRING(3),=C'GPP'
         BNE   CMDADDR
*       GPP ...COMMAND ....  WAS ENTERED
         BAL   LINK,EXTRACT   GET REAL COMMAND
         BZ    ERROR
         LH    R3,STRLEN      LENGTH OF COMMAND
         MVC   MEMNAME(8),BLANK8
         EX    R3,MEMMVC
         LOAD  EPLOC=MEMNAME
         LR    R2,R0          ADDRESS OF COMMAND TABLE
         B     CMDSRCH
CMDADDR  L     R2,VCMDTAB     GET EXTERNAL ADDRESS
         LTR   R2,R2          IS IT RESOLVED
         BNZ   CMDSRCH
         LA    R1,MSG24       NO COMMAND TABLE
         B     MSNGR
CMDSRCH  EX    R3,CMDCLC           IS THIS THE COMMAND ?
         BE    GOTCMD               BR IF SO
         CLI   8(R2),X'FF'         CHECK FOR END OF TABLE
         BE    UMWFIRST       USE FIRST COMMAND.
         LA    R2,CMDENTLN(R2)     POINT AT NEXT ENTRY
         B     CMDSRCH              AND GO CHECK IT
UMWFIRST L     R2,VCMDTAB     ADDR OF FIRST COMMAND NAME
GOTCMD   L     R10,8(R2)           GET PTR TO CMD DESCRIPTOR LIST
         USING CDL,R10              MAKE IT ADDRESSIBLE
*  NOTE THAT R10 IS ASSUMED TO BE THE CDL POINTER FOR THE REMAINDER
*  OF THE PROGRAM.
*
*        COPY ALTERNATE DDNAME LIST TO WORKAREA
*
         L     R1,CDLADL           GET PTR TO ALT DDNAME LIST
         LTR   R1,R1               IS THERE ONE ?
         BZ    CMDEND              BR IF NONE
         USING ADL,R1
         LH    R2,ADLLEN           GET SIZE OF ADL
         LA    R2,1(R2)            ADD IN SIZE OF COUNT FIELD
         EX    R2,ADLMVC           MOVE ADL TO WORKAREA
         B     CMDEND              GO DO NEXT PROC
         SPACE
ADLMVC   MVC   ADLIST(0),0(R1)     EXECUTED MVC
CMDCLC   CLC   STRING(0),0(R2)
MEMMVC   MVC   MEMNAME(*-*),STRING
         DROP  R1
         SPACE
CMDEND   DS    0H
         EJECT
*
*        CHECK FOR OPTIONS
*
CHKOPT   DS    0H
         L     R1,CDLOPT           GET PTR TO OPTIONS
         LTR   R1,R1               ARE THERE ANY ?
         BZ    OPTDONE             BR IF NONE
         MVI   PFIRST,ON           TURN ON FIRST TIME THRU SWITCH
         MVI   PASS,1              INDICATE FIRST PASS OVER OPTIONS
         LA    R5,PARMFLD          GET PTR TO PARM FIELD
         ST    R5,PARMSAVE         SAVE PARM POINTER
*
*        EXTRACT AN OPTION AND GET ITS TABLE ENTRY
*
         CLI   CDLINSRT,X'00'
         BE    BUMPOPT
         SR    15,15
         IC    15,CDLINSRT
         L     14,CDLINSRT
         BCTR  15,0
         EX    15,CDLINSMV
         STH   15,STRLEN
         L     R1,PARMSAVE
         BAL   LINK,INSERTP
*
CDLINSMV MVC   STRING(*-*),0(14)
*
BUMPOPT  DS    0H
         BAL   LINK,EXTRACT        GET NEXT OPTION
         BZ    DONE                 BR IF NO MORE
         BAL   LINK,SCANOPT        SEARCH OPTION LIST
         BZ    PUTPARM             USE AS A PARM IF NOT AN OPTION
         USING OPTIONS,R2
*  NOTE THAT R2 IS ASSUMED TO BE THE CURRENT OPTION POINTER
*  UNTIL OPTDONE.
*
*  CHECK FOR CONCATENATION STRING FROM OPTION MACRO
*
         TM    OPTFLAGS,CONCATST
         BNO   NOCNCTST           BRANCH IF NO STRING
         CLI   PASS,2
         BE    NOCNCTST       DONT CONCAT IF DEFAULT
         BAL   LINK,CNCTST        CALL CONCAT STRING ROUTINE
NOCNCTST DS    0H
         L     R0,OPTDAPB          CHECK FOR A DAIR PARM BLOCK
         LTR   R0,R0               IF THERE ISN'T ONE THEN
         BZ    CHKOPINS             SKIP ALLOCATION
         MVC   FLAGS,OPTALLOC      INITIALIZE FLAGS
*
*        GET OR MAKE UP A DSNAME
*
         MVI   FLAGSUMW,0     INIT FLAGS
         XC    LASTDD,LASTDD
         MVI   LISTSW,C'0'
         CLI   SW,ONP              CHECK IF DSN SUPPLIED
         BE    GETODSN             BR IF THERE
         BL    DOALLOC              IF DUMMY DATASET THEN JUST ALLOC
         LA    R4,OPTQUAL          POINT TO QUALIFIER
         BAL   LINK,MAKENAM         CREATE A DSN
         B     CHECKNAM            GO ALLOCATE IT
GETODSN  LA    R4,OPTQUAL          POINT TO QUALIFIER
         BAL   LINK,SCANLIST      CHECK FOR CONCATENATION LIST
         LA    DDPTR,DDLIST       PICK UP ENTRY FOR FIRST SUBFIELD
         B     LISTGO
LISTLOOP DS    0H                 LOOP THRU SUBFIELDS, ALLOCATE EACH
         MVC   FLAGS,OPTALLOC      INITIALIZE FLAGS
         MVI   FLAGSUMW,0     INIT FLAGS
*         BAL   LINK,INITDPB
LISTGO   ST    DDPTR,DDSAV
         L     R3,0(DDPTR)        POINTER TO SUBFIELD
         L     R1,4(DDPTR)        LENGTH OF SUBFIELD
         BAL   LINK,SETDSN         EXTRACT DSNAME
*
*        ENSURE VALID DSNAME AND ALLOCATE THE DATASET
*
CHECKNAM BAL   LINK,CHECKDSN       GO SEE IF DSN IS O.K.
         BNZ   RNTRDSN              IF BAD, GO ASK FOR NEW DSN
DOALLOC  DS    0H             SET UP PARM BLOCK AND ALLOCATE
         BAL   LINK,INITDPB   GO SET UP DAIR PARM BLOCK
         BAL   LINK,ALLOCATE       NOW ALLOCATE THE DATASET
         TM    ALFLAGS,MAYBBAD     SHOULD WE TRY W/O QUAL?
         BO    RETRYAL        YUP.
         TM    ALFLAGS,BADSN  CHECK FOR INVALID DSNAME
         BO     RNTRDSN        ASK FOR ANOTHER NAME
         TM    FLAGS2,GOTBASIC     HAVE WE ALREADY GOTTEN BASIC DSN
         BO    DONEALOC              BR IF SO
         BAL   LINK,SETBASIC        ELSE, TRY TO GET A BASIC DSNAME
         B     DONEALOC       ALLOCATION COMPLETE
RETRYAL  DS    0H             RETRY ALLOC W/O QUALIFIER
         BAL   LINK,RMVQUAL   REMOVE QUALIFIER FROM DSN
*         MVC   FLAGS,OPTALLOC      INITIALIZE FLAGS
         BAL   LINK,INITDPB        GO SET UP OUR DAIR PARM BLOCK
         BAL   LINK,ALLOCATE  TRY ALLOC W/O QUALIFIER
         TM    ALFLAGS,BADSN  CHECK FOR INVALID DSNAME
         BO     RNTRDSN        ASK FOR ANOTHER NAME
DONEALOC DS    0H
         EJECT
*
*        CHECK FOR DCB AND OPEN IT FOR NEW OR TERMINAL DATASETS
*
         TM    FLAGS,NEW+STARRED   WAS THIS A NEW DATASET ?
         BZ    ENDOPEN             BR IF NOT
         L     R3,OPTDCB           WAS A DCB SUPPLIED ?
         LTR   R3,R3                IF NOT THEN
         BZ    ENDOPEN              SKIP OPEN
         MVC   DCB(LTDCB),0(R3)    MOVE IN THE DCB
         LA    R3,DCB               POINT AT IT
         USING IHADCB,R3
         MVC   DCBDDNAM,DDNAME     INSERT DDNAME
         OPEN  ((R3),OUTPUT),MF=(E,OPENCLOS)      TRY TO OPEN
         TM    DCBOFLGS,X'10'      DID IT WORK ?
         BO    OPCLOSE              BR IF SO
         MVC   MSGAREA(LMSG8),MSG8  ELSE SET UP OUR ERROR MESSAGE
         MVC   MSGAREA+17(8),DDNAME
         LA    R1,MSGAREA          AND GO TELL USER
         BAL   LINK,SENDMSG          OF THE PROBLEM
         B     ENDOPEN
OPCLOSE  CLOSE ((R3)),MF=(E,OPENCLOS)         NOW CLOSE THE DATASET
         DROP  R3
ENDOPEN  DS    0H
         L     DDPTR,DDSAV
         MVC   0(8,DDPTR),DDNAME
         LA    DDPTR,8(DDPTR)
         C     DDPTR,LASTDD
         BNH   LISTLOOP
         CLI   LISTSW,C'1'
         BNE   NOCONCAT
         BAL   LINK,CONCAT
         MVC   DDNAME,DDLIST
NOCONCAT DS    0H
*
*        PROCESS INSERT STRING
*
CHKOPINS TM    OPTFLAGS,INSERT     IS THERE AN INSERT STRING ?
         BNO   BUMPOPT              BR IF NOT
* COMMENTIZE NEXT TWO INSTRUCTIONS IF INSERT DESIRED FOR DEFAULTS
*         CLI   PASS,2              CHECK FOR PASS 2
*         BE    BUMPOPT              NO INSERT FOR DEFAULT STRINGS
         BAL   LINK,DOINSERT       GO PERFORM INSERTION
         B     BUMPOPT              AND GO GET NEXT OPTION
*
*        ASK USER TO REENTER DATASET NAME
*
RNTRDSN  DS    0H
         MVC   MSGAREA(LMSG6),MSG6 GET ERROR MESSAGE
         MVC   MSGAREA+18(44),DSN  INSERT DSNAME
         LA    R1,MSGAREA          POINT TO MESSAGE
         BAL   LINK,SENDMSG        GO TELL USER
         LA    R1,MSG16            POINT TO PROMPT MESSAGE
         BAL   LINK,GETMSG         AND ASK FOR NEW DSNAME
        OC    INMSG,BLANK80       UPPER CASE RESPONSE      UMW RCT
         LH    R1,INMSGLEN    LENGTH OF INPUT
         LA    R3,INMSG            GET PTR TO DSN
         LA    R4,OPTQUAL          GET PTR TO QUALIFIER
         MVI   FLAGSUMW,0     INIT FLAGS
         BAL   LINK,SETDSN         EXTRACT DSNAME
         B     CHECKNAM            GO RETRY
         EJECT
*
*        INSERT A NON-OPTION IN THE PARAMETER LIST
*
PUTPARM  DS    0H
         L     R1,PARMSAVE         GET POINTER TO PARM AREA
         CLI   PFIRST,ON           CHECK FOR FIRST TIME SWITCH
         BE    DOPMOVE             BR IF FIRST TIME
         MVI   0(R1),C','          MOVE IN A COMMA IF NOT FIRST TIME
         LA    R1,1(R1)            BUMP PARM POINTER
         LH    R0,PARMCNT          GET CURRENT PARM COUNT
         AH    R0,=H'1'            BUMP IT FOR ','
         STH   R0,PARMCNT          SAVE COUNT
DOPMOVE  BAL   LINK,INSERTP        INSERT PARM IN PARM FIELD
         MVI   PFIRST,OFF          TURN OFF FIRST TIME SWITCH
         B     BUMPOPT             GO TRY FOR NEXT OPTION OR PARM
RMVQUAL  DS    0H             REMOVE QUALIFIER FROM DSN
         STM   R0,R10,SAVE2   SAVE SOME REGS
         NI    FLAGSUMW,255-XTRAQUAL TURN OFF ADDED QUAL BIT
         LA    R4,OPTQUAL     -> QUALIFIER
         LA    R1,DSN              GET PTR TO DSN
         LH    R5,DSNLEN            AND DSNAME LENGTH
         LA    R3,0(R1,R5)         GET PTR TO END OF DSN + 1
         SR    R1,R1               CLEAR REG FOR IC
         IC    R1,0(R4)            GET LENGTH OF QUALIFIER
         LR    R0,R1                SAVE QUAL LENGTH
         L     R4,0(R4)            GET ADDR OF QUALIFIER
         SR    R3,R1               GET PTR TO DSN - QUALIFIER
         BCTR  R1,0                DECREMENT FOR EX
         MVC   0(0,R3),BLANK8  GETS RID OF QUALIFIER
         EX    R1,*-6    BLANK OUT QUALIFIER
         CH    R0,DSNLEN           IS THE DSN ONLY THE QUALIFIER ?
         BL    RMVOK          OF COURSE NOT
         DC    X'00'
RMVOK    DS    0H
         BCTR  R3,0                BACK UP ONE MORE
         MVI   0(R3),C' '     BLANK OUT THE '.'
         SR    R5,R0          DSNLEN=DSNLEN-QUALEN
         BCTR  R5,0           SUBTRACT 1 FOR '.'
         STH   R5,DSNLEN
         LM    R0,R10,SAVE2   RESTORE REGS
         BR    LINK           RETURN TO CALLER
OPTDONE  DS    0H
         DROP  R2
         EJECT
*
*        PLACE TO COME ON END OF COMMAND
*
DONE     DS    0H
*
*        PROMPT USER FOR MISSING OPTION OR ELSE
*        TAKE SPECIFIED DEFAULTS
*
         USING OPTIONS,R6
         L     R6,CDLOPT           RESTORE OPTION POINTER
         MVI   PASS,2              INDICATE SECOND PASS OVER OPTIONS
         MVC   MEMNAME,BLANK8      CLEAR MEMBER FIELD
         MVC   PASSWD,BLANK8      CLEAR PASSWORD FIELD
         MVC   VOLID,BLANK8      CLEAR VOLSER FIELD
         LA    R5,OFLAGS           GET PTR TO OPTION FLAGS
DOPTCHK  CLI   0(R5),ON            CHECK IF OPTION WAS SPECIFIED
         BE    DBMPOPT             BR IF SO TO GET NEXT
*
         XR    R1,R1               CLEAR REG
         IC    R1,OPTPRMPT         GET LENGTH OF PROMPT FIELD
         LTR   R1,R1               WAS THERE ONE ?
         BZ    CHECKDFL             BR IF NOT
*
*        PROMPT USER FOR MISSING INFORMATION
*
         STC   R1,MSGAREA          SET COUNT IN MESSAGE AREA
         BCTR  R1,0                DECREMENT FOR MVC
         L     R2,OPTPRMPT         GET ADDR OF PROMPT STRING
         EX    R1,PRMPTMVC         MOVE STRING TO MESSAGE AREA
         XR    R1,R1               CLEAR ANOTHER REG
         IC    R1,OPTHELP          IS HELP AVAILABLE ?
         LTR   R1,R1
         BZ    PRMPTUSR             BR IF NOT
         STC   R1,HELP             SET LENGTH OF THE HELP STRING
         L     R2,OPTHELP          GET THE ADDR OF THE HELP STRING
         BCTR  R1,0                MOVE HELP TO
         EX    R1,DHELPMVC          HELP AREA
PRMPTUSR LA    R1,MSGAREA          GET PTR TO PROMPT MSG
         BAL   LINK,GETMSG          AND PROMPT USER FOR MISSING INFO
*
*        INSERT REPLY IN THE COMMAND STRING
*
*  NOTE THAT PROMPTING WILL NOT WORK FOR NON-POSITIONAL OPERANDS YET.
         LH    R1,INMSGLEN         GET LENGTH OF THE REPLY
         LTR   R1,R1               DID WE GET ANY RESPONSE ?
         BZ    DOPTCHK              BR IF NOT - RETRY
         STH   R1,CMDLEN            SET IN COMMAND STRING
         BCTR  R1,0
         EX    R1,CMDMVC           MOVE REPLY TO CMD STRING
         MVI   PASS,1         SCAN RESPONSE IN PASS1 MODE
         B     BUMPOPT             GO CHECK REPLY
         SPACE
CMDMVC   MVC   CMDFLD(0),INMSG     MOVES REPLY TO CMD STRING
         EJECT
*
*        NO PROMPT SO TAKE DEFAULT
*
CHECKDFL DS    0H
         XR    R1,R1               GET THE LENGTH OF
         IC    R1,OPTDFLT           THE DEFAULT STRING
         LTR   R1,R1               WAS THERE ONE ?
         BZ    DBMPOPT              BR IF NOT
         STH   R1,CMDLEN           SET THE LENGTH IN CMD STRING
         BCTR  R1,0
         L     R2,OPTDFLT          GET ADDR OF THE STRING
         EX    R1,DFLMVC           MOVE DEFAULT TO COMMAND STRING
         B     BUMPOPT             GO PROCESS AS IF ENTERED
*
*        BUMP OPTION PTR AND CHECK FOR END
*
DBMPOPT  DS    0H
         TM    OPTFLAGS,LAST       WAS THIS THE LAST OPTION ?
         BO    SPECPROC             BR IF SO - WE'RE DONE HERE
         MVI   0(R5),ON            INDICATE LAST OPTION DONE
         LA    R5,1(R5)            BUMP OPTION FLAG POINTER
         LA    R6,OPTLEN(R6)       BUMP OPTION POINTER
         B     DOPTCHK              AND GO CHECK NEXT OPTION
         DROP  R6
         SPACE
DFLMVC   MVC   CMDFLD(0),0(R2)     MOVES DEFAULT STRING TO COMMAND AREA
DHELPMVC MVC   HELP+1(0),0(R2)     MOVES HELP STRING TO HELP AREA
PRMPTMVC MVC   MSGAREA+1(0),0(R2)  MOVES PROMPT STRINT
         EJECT
*
*        ALLOCATE ANY SPECIAL DATASETS
*
SPECPROC DS    0H
         MVI   FLAGSUMW,0             CLEAR FLAGS
         OI    FLAGS2,SPCLDSN      INDICATE WE'RE DOING SPECIALS
         LA    R7,DAIRPB           GET PTR TO DAIR PARM BLOCK
         USING DAPB08,R7            MAKE IT ADDRESSIBLE
         L     R1,CDLSDL           CHECK FOR LIST OF SPECIAL DDNAMES
         LTR   R1,R1               ARE THERE ANY ?
         BZ    TLIBALOC            BR IF NOT TO TRY TASKLIB ALLOC
*
SPECLOOP L     R5,0(R1)            GET PTR TO FIRST (NEXT) SDL ENTRY
         MVI   FLAGS,0             CLEAR FLAGS
         MVC   DAIRPB(DPBLEN),0(R5)     MOVE IN DAIR PB
         MVC   NEWVOL,DA08SER
         L    R2,DA08BLK BLK FOR NEW WORKDS
         STH   R2,NEWAVLTH
         L    R2,DA08PQTY PQTY FOR NEW WORKDS
         STH   R2,NEWPRIME
         L    R2,DA08SQTY SQTY FOR NEW WORKDS
         STH   R2,NEWSEC
         MVC   DA08SER,BLANK8