         MACRO
&NAME    SDL   &P1,&P2,&P3,&P4,&P5,&P6,&P7,&P8,&P9,&P10,&P11,&P12
         LCLA  &I
&NAME    DS    0F
.LOOP    AIF   (&I EQ N'&SYSLIST-1).END
&I       SETA  &I+1
         DC    A(&SYSLIST(&I))
         AGO   .LOOP
.END     ANOP
         DC    AL1(X'80'),AL3(&SYSLIST(&I+1))
         MEND
