         MACRO
         STRING &STRING,&GEN=YES
         GBLC  &STRINGS(150),&IDS(150),&IDENT
         GBLA  &STRCNT,&TOTSTR,&STRLEN
         LCLC  &TEMP,&NAME
         LCLA  &N,&I,&LEN
&N       SETA  N'&STRING
&NAME    SETC  'ST'
.LOOP    ANOP
&I       SETA  &I+1
         AIF   (&I GT &N AND &I NE 1).END
         AIF   ('&STRING(&I)' NE '').GOTONE
         AIF   ('&GEN' NE 'YES').LOOP
         DC    A(0)
         AGO   .LOOP
.GOTONE  ANOP
         AIF   (&STRCNT LT 100).NAMOK
&NAME    SETC  'S'
.NAMOK   ANOP
         AIF   (&STRCNT LT 150).STROK
         MNOTE 8,'TOO MANY STRINGS - &STRING'
         AGO   .LOOP
.STROK   ANOP
&TEMP    SETC  '&STRING(&I)'
         AIF   ('&TEMP'(1,1) EQ '''').ASIS
&TEMP    SETC  ''''.'&TEMP'.''''
.ASIS    ANOP
&STRCNT  SETA  &STRCNT+1
&TOTSTR  SETA  &TOTSTR+1
&STRINGS(&STRCNT)  SETC   '&TEMP'
&IDS(&STRCNT)  SETC   '&IDENT'
         STRLEN &STRING(&I)
         DC    AL1(&STRLEN),AL3(&IDENT&NAME&TOTSTR)
         AGO   .LOOP
.END     ANOP
         MEND
