         PRINT NOGEN
         MACRO
&NAME    XSTART &TITLE,&MAIN=NO,&TYPE=NORMAL
&NAME    START 0
***********************************************************************
*                                                                     *
*   REGISTER USAGE TABLE                                              *
*                                                                     *
***********************************************************************
R0       EQU   0              TEMP WORK
R1       EQU   1              TEMP WORK
R2       EQU   2              WORK REG
R3       EQU   3              WORK REG
R4       EQU   4              WORK REG
R5       EQU   5              WORK REG
R6       EQU   6              WORK REG
R7       EQU   7              WORK REG
R8       EQU   8              WORK REG
R9       EQU   9              ADDRESS OF COMMON SUB-AREA
R10      EQU   10             ADDRESS OF COMMON SUB-AREA
R11      EQU   11             ADDRESS OF COMMON VECTOR TABLE
R12      EQU   12             BASE REGISTER
R13      EQU   13             SAVE AREA AND TEMPORARY WORK AREA
R14      EQU   14             TEMP WORK
R15      EQU   15             TEMP WORK
***********************************************************************
*                                                                     *
*   GLOBAL FLAG DEFINITIONS                                           *
*                                                                     *
***********************************************************************
         GBLB  &QPFK          PF-KEY OPTION (SEE Q5 AND Q8)
&QPFK    SETB  1
*  QPFK=0 SELECTS NO PF-KEY SUPPORT
*  QPFK=1 SELECTS PF=KEY SUPPORT
         GBLB  &QACF2         ACF2 AUTH CHECKING (SEE Q6 AND Q14)  FCI*
&QACF2   SETB  0                                                   FCI*
* QACF2=0 SELECTS NO ACF2 CHECKING (SHOPS WITHOUT ACF2)            FCI*
* QACF2=1 SELECTS ACF2 AUTH TO SYSOUT VIA DSN='SYSOUT.LID.JOBNAME' FCI*
*         SEE Q6 (FINDJOB) FOR ACF2 AUTH CHECKING                  FCI*
***********************************************************************
 MNOTE *,'QPFK=&QPFK, QACF2=&QACF2 '                           PWF FCI*
***********************************************************************
*                                                                     *
*   THE QUEUE COMMAND WAS WRITTEN FOR YOUR AMUSEMENT AND AMAZEMENT BY *
*     THE INTERGALACTIC MESSIANIC INDIVIDUAL GROUP THERAPY DIVISION   *
*     OF TRW SYSTEMS, 1 SPACE PARK, REDONDO BEACH, CA. 90278          *
*   THE ORIGINAL PROGRAMMING WAS DONE BY ANDY ZIDE, CHIEF PROGRAMMER  *
*     AND RESIDENT FLAKE WHO HAS SINCE DEPARTED TRW TO PLAY WITH      *
*     MICROCODE.                                                      *
*   PLEASE ADDRESS ANY COMMENTS, SUGGESTIONS, COMPLAINTS, OR THREATS  *
*     TO STEVE ANDERSON (R3/1028)   (213) 535-0682   OR               *
*        PAUL FELIX     (R3/1028)   (213) 535-0682                    *
***********************************************************************
*                                                                     *
*   THE FOLLOWING INDIVIDUALS HAVE MADE MODIFICATIONS TO QUEUE WHICH  *
*     HAVE BEEN INCORPORATED INTO THIS CURRENT VERSION.               *
*                                                                     *
*        VILKO MACEK                                                  *
*        INSURANCE CORPORATION OF BRITISH COLUMBIA                    *
*        MODIFICATION: PFK SUPPORT                                    *
*                                                                     *
*        TRW ISD                                                      *
*        ANAHEIM, CALIFORNIA                                          *
*        MODIFICATION: DISPLAY CPU TIME FOR BATCH, STC AND TSO        *
*                      DISPLAY INITIATORS                             *
*                                                                     *
*        KEN TRUE                                                     *
*        FAIRCHILD CAMERA AND INSTRUMENT                              *
*        MOUNTAIN VIEW, CALIFORNIA                                    *
*        MODIFICATION: ACF2 SUPPORT                                   *
*                      PRINT SCREEN SUPPORT                           *
*                                                                     *
***********************************************************************
*
         AIF   ('&TYPE' EQ 'NORMAL').GO
         MEXIT
.GO      ANOP
&NAME    TITLE &TITLE
         USING *,R12          BASE REGISTER
         USING *+4095,R10     SECOND BASE REGISTER
         USING QCOMMON,R11    ACCESS TO COMMON VECTOR TABLE
         STM   R14,R12,12(R13) STANDARD REGISTER SAVE
         LR    R12,R15        LOAD BASE REG
         LA    R10,4095(R12)  LOAD THE SECOND BASE
         B     *+28           BRANCH AROUND IDENTIFIER
         DC    CL8'&NAME'     MODULE IDENTIFIER
         DC    CL8'&SYSDATE'  ASSEMBLY DATE
         DC    CL8' &SYSTIME'  ASSEMBLY TIME
         AIF   ('&MAIN' EQ 'YES').MAINYES
         LR    R15,R13        RETAIN SAVE AREA ADDR
         LA    R13,72(R13)    POINT TO NEXT SAVE AREA
         AGO   .MAINNO
.MAINYES ANOP
         LR    R2,R1          SAVE PARAMETER REGISTER
         GETMAIN R,LV=1024    GET STORAGE FOR SAVEAREA
         ST    R1,8(R13)      FORWARD POINTER
         ST    R13,4(R1)      BACKWARD POINTER
         LR    R13,R1         MOVE ADDR TO R1
         MEXIT
.MAINNO  ANOP
         ST    R13,8(R15)     FORWARD POINTER
         ST    R15,4(R13)     BACKWARD POINTER
         MEND
DUMP     XSTART 'QUEUE COMMAND - FORMAT JES2 CONTROL BLOCKS'
         USING QDISPLAY,R9        BASE REG FOR DISPLAY WORK AREA
         L     R9,QVDSPL          LOAD BASE REG
         USING WORK,R13
NEXTIOT  EQU   16
         CLC   QPARM1(3),=C'HCT' DUMP THE HCT VARIABLES?
         BE    DHCT           YES. GO PROCESS
         CLC   QPARM1(4),=C'CKPT' DUMP THE CKPT?
         BE    DCKPT          YES. GO PROCESS
***********************************************************************
*                                                                     *
*   CALL FINDJOB TO LOCATE JQE,JCT, AND IOT                           *
*                                                                     *
***********************************************************************
         L     R15,=V(FINDJOB)    ROUTINE TO FIND JOB
         BALR  R14,R15            GO TO IT
***********************************************************************
*                                                                     *
*   DETERMINE THE CONTROL BLOCK TO BE FORMATTED                       *
*                                                                     *
***********************************************************************
         CLC   QPARM2(3),=C'ALL' DUMP ALL THE CONTROL BLOCKS FOR JOB
         BE    DALL           YES. GO PROCESS
         XC    DALLREG,DALLREG   INITIALIZE
         CLC   QPARM2(3),=C'JQE' DUMP THE JQE?
         BE    DJQE           YES. GO PROCESS
         CLC   QPARM2(3),=C'JCT' DUMP THE JCT?
         BE    DJCT           YES. GO PROCESS
         CLC   QPARM2(3),=C'JOE' DUMP THE JOE?
         BE    DJOE           YES. GO PROCESS
         CLC   QPARM2(3),=C'IOT' DUMP THE IOT?
         BE    DIOT           YES. GO PROCESS
         CLC   QPARM2(4),=C'PDDB' DUMP THE PDDB?
         BE    DPDDB          YES. GO PROCESS
         CLC   QPARM2(3),=C'HQT' DUMP THE HQT?
         BE    DHQT           YES. GO PROCESS
         CLC   QPARM2(3),=C'HQR' DUMP THE HQR?
         BE    DHQR           YES. GO PROCESS
*        CLC   QPARM2(3),=C'JRT' DUMP THE JRT?
*        BE    DJRT           YES. GO PROCESS
         B     STOP
***********************************************************************
*                                                                     *
*   DUMP ALL THE CONTROL BLOCKS FOR THE JOB                           *
*                                                                     *
***********************************************************************
DALL     SR    R2,R2          CLEAR REG
         LA    R2,FIRSTCB     ADDR OF FIRST CB TO BE FORMATTED
         ST    R2,DALLREG     SAVE ADDRESS
FIRSTCB  B     DJQE           DUMP JQE
         B     DJCT           DUMP JCT
*        B     DJRT           DUMP JRT
         B     DIOT           DUMP IOT
         B     DPDDB          DUMP PDDB
         B     DHQT           DUMP HQT
         B     DHQR           DUMP HQR
         B     STOP1          EXIT
***********************************************************************
*                                                                     *
*   FORMAT THE JQE                                                    *
*                                                                     *
***********************************************************************
DJQE     MVC   QDHLINE,JQEHDR MOVE IN THE HEADING
         LA    R2,JQEDESC     A(JQE DESCRIPTION)
         L     R4,QCJQEA      ADDR OF INPUT DATA
         BAL   R3,FORMAT      GO FORMAT THE JQE
         B     STOP           EXIT
***********************************************************************
*                                                                     *
*   FORMAT THE JOE                                                    *
*                                                                     *
***********************************************************************
         USING JQEDSECT,R1        BASE REG FOR JQE
DJOE     MVC   QDHLINE,JOEHDR     MOVE IN THE HEADING
         L     R1,QCJQEA          A(JQE)
         SR    R4,R4              CLEAR REG
         LH    R4,JQEJOE          JOE OFFSET
         DROP  R1
JOELOOP  LTR   R4,R4              ?/JOE PRESENT
         BZ    STOP               NO. EXIT
         SLL   R4,2               YES. MULTIPLY OFFSET BY 4
         L     R1,QCJOTA          A(JOT)
         AR    R4,R1              A(JOE)
         ST    R4,JOEADDR         SAVE JOE ADDR
         LA    R2,JOEDESC         A(JOE DESCRIPTION)
         BAL   R3,FORMAT          BRANCH TO FORMAT ROUTINE
         MVC   QDMSG,QBLANK       BLANK OUT THE MESSAGE AREA
         BAL   R8,DISPLAY1        GO DISPLAY THE BLANK LINE
         USING JOEDSECT,R4        BASE REG FOR JOE
         L     R4,JOEADDR         RESTORE JOE ADDR
         SR    R5,R5              CLEAR REG
         LH    R5,JOEJOE          GET NEXT JOE OFFSET
         LR    R4,R5              R4 - JOE OFFSET
         B     JOELOOP            GO THRU THE CYCLE AGAIN
         DROP  R4
***********************************************************************
*                                                                     *
*   FORMAT THE JCT                                                    *
*                                                                     *
***********************************************************************
DJCT     MVC   QDHLINE,JCTHDR MOVE IN THE HEADING
         LA    R2,JCTDESC     A(JCT DESCRIPTION)
         L     R4,QCJCTA      A(INPUT DATA)
         BAL   R3,FORMAT      GO FORMAT THE DATA
         B     STOP           EXIT
***********************************************************************
*                                                                     *
*   FORMAT THE IOT                                                    *
*                                                                     *
***********************************************************************
DIOT     MVC   QDHLINE,IOTHDR MOVE IN THE HEADING
         MVI   SWITCH,0
         L     R4,QCIOTA      A(INPUT DATA)
         LTR   R4,R4          ?/IOT VALID
         BZ    STOP           NO. EXIT
IOTLOOP  ST    R4,IOTADDR     YES. SAVE FOR LATER USE
         LA    R2,IOTDESC     A(IOT DESCRIPTION)
         BAL   R3,FORMAT      GO FORMAT THE DATA
         MVC   QDMSG,QBLANK       BLANK OUT THE MESSAGE AREA
         BAL   R8,DISPLAY1        GO DISPLAY THE BLANK LINE
         L     R4,IOTADDR     RESTORE IOT ADDR
         L     R4,NEXTIOT(R4) GET ADDR OF NEXT IOT
IOT010   LTR   R4,R4          ?/NEXT IOT PRESENT
         BZ    SPINIOT        NO. CHECK SPIN IOT'S
         BAL   R8,READ        YES. READ THE IOT IN
         B     IOTLOOP
SPINIOT  TM    SWITCH,1       ?/SPIN IOT ALREADY SEARCHED
         BO    STOP           YES. EXIT
         OI    SWITCH,1       NO. INDICATE ITS NOW BEING SEARCHED
         L     R4,QCJCTA      A(JCT)
         L     R4,12(R4)      GET ADDR OF SPIN IOT
         B     IOT010         GO VERIFY THE IOT IS VALID
***********************************************************************
*                                                                     *
*   FORMAT THE PDDB                                                   *
*                                                                     *
***********************************************************************
DPDDB    MVC   QDHLINE,PDDBHDR MOVE IN THE HEADING
         MVI   SWITCH,0       INITIALIZE SWITCH
         USING PDBDSECT,R2    BASE REG FOR PDDB
         USING IOTDSECT,R3    BASE REG FOR IOT
         L     R3,QCIOTA      LOAD BASE REG
         LR    R4,R3          BASE OF IOT
PDDB010  A     R4,IOTPDDBP    OFFSET BEYOND LAST PDDB
         LR    R2,R3          BASE OF IOT
         A     R2,QCPDDB1     OFFSET TO FIRST PDDB IN IOT
PDDB020  ST    R2,PDDBADDR    SAVE ADDR OF PDDB
         ST    R3,IOTADDR     SAVE ADDR OF IOT
         ST    R4,LASTPDDB    SAVE ADDR OF LAST PDDB
         LR    R4,R2          ADDR OF INPUT DATAET?
         LA    R2,PDDBDESC    A(PDDB DESCRIPTION)
         BAL   R3,FORMAT      GO FORMAT THE PDDB
         MVC   QDMSG,QBLANK       BLANK OUT THE MESSAGE AREA
         BAL   R8,DISPLAY1        GO DISPLAY THE BLANK LINE
         L     R2,PDDBADDR    RESTORE ADDR OF PDDB
         L     R3,IOTADDR     RESTORE ADDR OF IOT
         L     R4,LASTPDDB    RESTORE ADDR OF LAST PDDB
         LA    R2,PDBLENG(R2) NO. LOOK AT NEXT PDDB.
         CR    R2,R4          HAVE WE GONE PAST THE LAST PDDB?
         BNL   PDDB025        YES. GET NEXT PDDB
         CLC   PDBDSKEY,=H'0' ?/VALID PDDB
         BNE   PDDB020        YES. GO PROCESS
PDDB025  L     R4,IOTIOTTR    DISK ADDR OF NEXT IOT
PDDB030  LTR   R4,R4          IS THERE ANOTHER IOT?
         BZ    PDDB040        NO. TRY THE SPIN IOT?
         BAL   R8,READ        READ THE IOT
         B     PDDB010        SEARCH THE NEXT IOT
         USING JCTDSECT,R1    BASE REG FOR JCT
PDDB040  TM    SWITCH,1       DID WE SEARCH THE SPINIOT ALREADY?
         BO    STOP           YES. EXIT.
         OI    SWITCH,1       SET SWITCH
         L     R1,QCJCTA      LOAD BASE REG
         L     R4,JCTSPIOT    DISK ADDR OF SPIN IOT
         B     PDDB030        SEARCH THE SPIN IOT CHAIN
         DROP  R1
         DROP  R2
         DROP  R3
***********************************************************************
*                                                                     *
*   FORMAT THE HCT                                                    *
*                                                                     *
***********************************************************************
DHCT     MVC   QDHLINE,HCTHDR MOVE IN THE HEADING
         LA    R2,HCTDESC     A(HCT DESCRIPTION)
         L     R4,QCJQTL      ADDR OF INPUT DATA
         BAL   R3,FORMAT      GO FORMAT THE JQE
         B     STOP           EXIT
***********************************************************************
*                                                                     *
*   FORMAT THE HQT                                                    *
*                                                                     *
***********************************************************************
         USING JCTDSECT,R1
DHQT     MVC   QDHLINE,HQTHDR MOVE IN THE HEADING
         L     R1,QCJCTA      A(JCT)
         L     R4,JCTHQT      A(INPUT DATA)
         DROP  R1
         LTR   R4,R4          ?/HQT VALID
         BZ    STOP           NO. EXIT
         B     HQTREAD        READ IN THE HQT
HQTLOOP  ST    R4,HQTADDR     YES. SAVE FOR LATER USE
         LA    R2,HQTDESC     A(HQT DESCRIPTION)
         BAL   R3,FORMAT      GO FORMAT THE DATA
         MVC   QDMSG,QBLANK       BLANK OUT THE MESSAGE AREA
         BAL   R8,DISPLAY1        GO DISPLAY THE BLANK LINE
         L     R4,HQTADDR     RESTORE IOT ADDR
         USING HQTDSECT,R4
         L     R4,HQTHQT      GET ADDR OF NEXT HQT
         LTR   R4,R4          ?/NEXT HQT PRESENT
         BZ    STOP
HQTREAD  BAL   R8,READ        YES. READ THE IOT IN
         B     HQTLOOP
         DROP  R4
***********************************************************************
*                                                                     *
*   FORMAT THE HQR                                                    *
*                                                                     *
***********************************************************************
         USING JCTDSECT,R1
DHQR     MVC   QDHLINE,HQRHDR MOVE IN THE HEADING
         L     R1,QCJCTA      A(JCT)
         L     R4,JCTHQT      A(HQT)
         DROP  R1
         LTR   R4,R4          ?/HQT VALID
         BZ    STOP           NO. EXIT
         B     HQRREAD        READ IN THE HQT
         USING HQRDSECT,R2
         USING HQTDSECT,R3
HQR010   LR    R3,R4          LOAD BASE REG
         A     R4,HQTHQRP     OFFSET BEYOND LAST HQR
         LA    R2,HQTHQR      ADDRESS OF FIRST HQR IN HQT
HQR020   ST    R2,HQRADDR     SAVE ADDR OF HQR
         ST    R3,HQTADDR     SAVE ADDR OF HQT
         ST    R4,LASTHQR     SAVE ADDR OF LAST HQR
         LR    R4,R2          ADDR OF INPUT DATASET
         LA    R2,HQRDESC     A(HQR  DESCRIPTION)
         BAL   R3,FORMAT      GO FORMAT THE PDDB
         MVC   QDMSG,QBLANK       BLANK OUT THE MESSAGE AREA
         BAL   R8,DISPLAY1        GO DISPLAY THE BLANK LINE
         L     R2,HQRADDR     RESTORE ADDR OF HQR
         L     R3,HQTADDR     RESTORE ADDR OF HQT
         L     R4,LASTHQR     RESTORE ADDR OF LAST HQR
         LA    R2,HQRLENG(R2) NO. LOOK AT NEXT HQR .
         CR    R2,R4          HAVE WE GONE PAST THE LAST HQR ?
         BNL   HQR025         YES. GET NEXT HQR
         CLC   24(2,R2),=H'0' ?/VALID HQR
         BNE   HQR020         YES. GO PROCESS
HQR025   L     R4,HQTHQT      DISK ADDR OF NEXT HQT
HQR030   LTR   R4,R4          IS THERE ANOTHER HQT?
         BZ    STOP           NO. EXIT
HQRREAD  BAL   R8,READ        READ THE HQT
         B     HQR010         SEARCH THE NEXT HQT
         DROP  R2
         DROP  R3
***********************************************************************
*                                                                     *
*   FORMAT THE JRT                                                    *
*                                                                     *
***********************************************************************
*        USING JCTDSECT,R1
*DJRT    MVC   QDHLINE,JRTHDR MOVE IN THE HEADING
*        L     R1,QCJCTA      GET JCT ADDRESSABILITY
*        L     R4,JCTJRT      A(JRT)
*        DROP  R1             DROP JCT ADDRESSABILITY
*        LTR   R4,R4          ?/JRT PRESENT
*        BZ    STOP           NO. EXIT
*        BAL   R8,READ        YES. GO READ IN THE DISK COPY
*        USING JRTDSECT,R4
*        L     R2,JRTNVOL     GET NO OF VOLSERS IN JRT LIST
*        LTR   R2,R2          ?/PRESENT
*        BZ    JRT010         NO. CONTINUE PROCESSING
*        BCTR  R2,R0          YES. DECREMENT THE COUNT BY 1
*        ST    R2,NUMOFVOL    SAVE FOR LATER USE
*RT010   LA    R2,JRTDESC     A(JRT FIELD DESCRIPTIONS)
*        BAL   R3,FORMAT      GO FORMAT THE DATA
*        B     STOP
*        DROP  R4
*RT      EQU   R4
***********************************************************************
*                                                                     *
*   FORMAT THE CHECKPOINT                                             *
*                                                                     *
***********************************************************************
DCKPT    MVC   QDHLINE,CKPTHDR MOVE IN THE HEADING
         SR    R2,R2          CLEAR REG
         AH    R2,=H'4096'    LENGTH OF CKPT RECORDS                BFG
         L     R4,QCJQTL      A(FIRST CHECKPOINT RECORD)
         L     R6,QCJOTL      NO. OF CHECKPOINT RECORDS
         LA    R6,0(R6)       PURIFY THE REG
         B     CKPT000        GO FORMAT THE DATA
***********************************************************************
*                                                                     *
*   FORMAT THE DATA                                                   *
*                                                                     *
***********************************************************************
FORMAT   ST    R3,RETURN          SAVE LINK ADDRESS
         SR    R5,R5              OFFSET REGISTER
FMT000   LA    R3,QDMSG           A(DISPLAY LINE)
         LA    R6,80(R3)          A(END OF DISPLAY)
         MVC   QDMSG,QBLANK       INIT THE CURRENT LINE
         MVI   0(R3),C'+'         INDICATE RELATIVE
         XC    PLAY,PLAY
         ST    R5,PLAY            TRANSLATE
         UNPK  PLAY(9),PLAY(5)        OFFSET TO
         TR    PLAY(8),TBL-240               DECIMAL
         MVC   1(3,R3),PLAY+5
         LA    R3,5(R3)           NEXT LOCATION OF DISPLAY LINE
FMT010   CLI   0(R2),X'FF'        ?/ALL FIELDS FORMATTED
         BNE   FMT012             NO. CONTINUE PROCESSING
         CLC   QPARM2(3),=C'JRT'  YES. IS THIS A SPECIAL CASE
         BNE   DISPLAY            NO. EXIT
         ICM   R7,15,NUMOFVOL     YES. GET NOT VOLSERS IN JRT LIST
         BZ    DISPLAY            NONE PRESENT, GO DISPLAY THE LINE
         BCTR  R7,R0              DECREMENT NO. OF VOLSERS BY 1
         ST    R7,NUMOFVOL        SAVE THE CURRENT COUNT
         SH    R2,=H'18'          GO DISPLAY THIS FIELD AGAIN
FMT012   SR    R7,R7              CLEAR REG FOR INSERT
         IC    R7,5(R2)           GET LENGTH OF FIELD
         CLC   QPARM1(3),=C'HCT'  ?/FORMATTING THE HCT
         BNE   NOHCT0             NO. DON'T BUMP
         IC    R7,8(R2)           GET LENGTH OF FIELD
NOHCT0   LA    R8,6(R3)           CURRENT DISPLACEMENT IN DISPLAY LINE
         CLC   QPARM1(3),=C'HCT'  ?/FORMATTING THE HCT
         BNE   NOHCT1             NO. DON'T BUMP
         LA    R8,3(R8)           ADD THE EXTRA FOR HCT
NOHCT1   CLM   R7,1,=X'80'        ?/CHARACTER FIELD
         BC    13,DOUBLE          ** NO. DOUBLE THE LENGTH
         N     R7,=X'0000007F'    ** TURN OFF INDICATOR IN CASE
         SRL   R7,1               ** YES. CUT LENGTH IN HALF
         B     NODOUBLE           ** DON'T DOUBLE
DOUBLE   AR    R8,R7              ADD LENGTH TO DISPLACEMENT
NODOUBLE AR    R8,R7              DOUBLE IT
         CR    R8,R6              ?/ENOUGH ROOM ON DISPLAY
         BH    FMT050             NO. GO DISPLAY THIS LINE
         CLC   QPARM1(3),=C'HCT'  ?/HCT BEING DUMPED
         BNE   NOHCT2             NO. BYPASS PROCESSING FOR HCT
         LA    R1,18(R3)          DEFAULT FOR NEXT OFFSET
         CH    R7,=H'4'           ?/FIELD LENGTH <= 4
         BNH   FMT015H            YES. CONTINUE
         LA    R1,18(R1)          BUMP FOR NEXT OFFSET
         CH    R7,=H'13'          ?/FIELD LENGTH <= 13
         BNH   FMT015H            YES. CONTINUE
         LA    R1,18(R1)          BUMP FOR NEXT OFFSET
         CH    R7,=H'22'          ?/FIELD LENGTH <= 22
         BNH   FMT015H            YES. CONTINUE
         LA    R1,18(R1)          BUMP FOR NEXT OFFSET
         CH    R7,=H'31'          ?/FIELD LENGTH <= 31
         BNH   FMT015H            YES. CONTINUE
         QTILT '** UNABLE TO FORMAT DUE TO FIELD DESCRIPTION ERROR **'
FMT015H  ST    R1,NEXTOSET        SAVE NEXT OFFSET
         MVC   0(8,R3),0(R2)      YES. MOVE IN FIELD ID
         LA    R3,9(R3)           UPDATE DISPLACEMENT
         B     FMT020             BRANCH AROUND NON-HCT CODE
NOHCT2   LA    R1,15(R3)          DEFAULT FOR NEXT OFFSET
         CH    R7,=H'4'           ?/FIELD LENGTH <= 4
         BNH   FMT015             YES. CONTINUE
         LA    R1,15(R1)          BUMP FOR NEXT OFFSET
         CH    R7,=H'11'          ?/FIELD LENGTH <= 11
         BNH   FMT015             YES. CONTINUE
         LA    R1,15(R1)          BUMP FOR NEXT OFFSET
         CH    R7,=H'19'          ?/FIELD LENGTH <= 19
         BNH   FMT015             YES. CONTINUE
         LA    R1,15(R1)          BUMP FOR NEXT OFFSET
         CH    R7,=H'26'          ?/FIELD LENGTH <= 26
         BNH   FMT015             YES. CONTINUE
         QTILT '** UNABLE TO FORMAT DUE TO FIELD DESCRIPTION ERROR **'
MVECHAR  MVC   0(0,R3),0(R4)      **
FMT015   ST    R1,NEXTOSET        SAVE NEXT OFFSET
         MVC   0(5,R3),0(R2)      YES. MOVE IN FIELD ID
         LA    R3,6(R3)           UPDATE DISPLACEMENT
FMT020   SR    R15,R15            CLEAR REG
         IC    R15,5(R2)          INSERT LENGTH AND FLAG
         CLC   QPARM1(3),=C'HCT'  ?/HCT BEING DUMPED
         BNE   NOHCT3             NO. BYPASS HCT PROCESSING
         IC    R15,8(R2)          YES. GET THE TRUE LENGTH AND FLAG
NOHCT3   ST    R15,SAVER15        SAVE CONTENTS OF REG 15
         N     R15,=X'00000080'   DESTROY LENGTH AND SAVE THE FLAG
         LTR   R15,R15            ?/CHARACTER FIELD
         BZ    FMT030             NO. GO TRANSLATE DATA TO EBCDIC
         L     R15,SAVER15        RESTORE CONTENTS OF REG 15
         N     R15,=X'0000007F'   TURN OFF THE FLAG AND SAVE LENGTH
         BCTR  R15,R0             DECREMENT LENGTH FOR EXECUTE
         EX    R15,MVECHAR        MOVE DATA TO DISPLAY LINE
         LA    R15,1(R15)         RESET LENGTH
         AR    R3,R15             ADD LENGTH TO DISPLAY LINE
         AR    R4,R15             ADD LENGTH TO INPUT DATA OFFSET
         AR    R5,R15             ADD LENGTH TO OFFSET
         B     FMT040             GO PREPARE FOR NEXT FIELD
FMT030   XC    PLAY,PLAY          CLEAR WORK AREA
         MVC   PLAY(1),0(R4)      MOVE DATA TO WORK AREA
         UNPK  PLAY+2(3),PLAY(2)  UNPACK THE DATA
         TR    PLAY+2(2),TBL-240  TRANSLATE TO PRINTABLE CHAR.
         MVC   0(2,R3),PLAY+2     MOVE INTO DISPLAY LINE
         LA    R3,2(R3)           UPDATE DISPLACEMENT
         LA    R4,1(R4)           POINT TO NEXT BYTE OF DATA
         LA    R5,1(R5)           RELATIVE OFSSET
         BCT   R7,FMT030          DO IT AGAIN.
FMT040   L     R3,NEXTOSET        GET NEXT OFFSET
         LA    R2,6(R2)           GET NEXT FIELD ID
         CLC   QPARM1(3),=C'HCT'  ?/HCT BEING DUMPED
         BNE   FMT010             NO. GO TO LOOP
         LA    R2,3(R2)           YES. POINT TO THE REAL NEXT FIELD
         B     FMT010
FMT050   BAL   R8,DISPLAY1        GO DISPLAY THIS LINE
         B     FMT000
DISPLAY  BAL   R8,DISPLAY1        GO DISPLAY THE LAST LINE
         L     R3,RETURN          RESTORE LINK ADDRESS
         BR    R3                 RETURN TO CALLER
DISPLAY1 CLC   QPARM1(4),=C'CKPT' ?/CHECKPOINT BEING DUMPED
         BNE   DISPLAY2           NO. KEEP ON TRUCKING
         L     R1,STARTADR        STARTING ADDR OF DATA FOR THIS LINE
         LR    R15,R4             ENDING ADDR OF DATA FOR THIS LINE
         SR    R15,R1             LENGTH OF DATA
         BCTR  R15,R0             DECREMENT BY 1 FOR EXECUTE.
         EX    R15,MOVE0          MOVE THE DATA TO THE WORK AREA
         EX    R15,TRANSLTE       TRANSLATE THE DATA
         EX    R15,MOVE1          MOVE THE DATA TO THE DISPLAY LINE
         MVI   QDMSG+52,C'*'      FILL IN THE REST
         MVI   QDMSG+73,C'*'           OF THE DATA
DISPLAY2 LA    R1,QDMSG           SAVE ADDRESS
         ST    R1,QDMSGA              OF THE MESSAGE
         MVC   QDMLNG,=H'80'      SET THE LENGTH
         L     R15,=V(DISPLAY)    BRANCH TO
         BALR  R14,R15              DISPLAY MODULE
         BR    R8
MOVE0    MVC   PLAY1(0),0(R1)     MOVE DATA TO WORK AREA
MOVE1    MVC   QDMSG+53(0),PLAY1  MOVE DATA TO DISPLAY LINE
TRANSLTE TR    PLAY1(0),TBL1      CHANGE THE DATA TO SPECIAL FORMAT
***********************************************************************
*                                                                     *
*   FORMAT THE CHECKPOINT DATA                                        *
*                                                                     *
***********************************************************************
CKPT000  SR    R5,R5          CLEAR OFFSET REGISTER
CKPT010  ST    R4,STARTADR    SAVE START ADDR OF DATA FOR THIS LINE
         LA    R3,QDMSG       A(DISPLAY LINE)
         MVC   QDMSG,QBLANK   BLANK THE CURRENT LINE
         MVI   0(R3),C'+'     INDICATE RELATIVE
         XC    PLAY,PLAY      CLEAR THE WORK AREA
         ST    R5,PLAY        MOVE OFFSET TO WORK AREA
         UNPK  PLAY(9),PLAY(5)
         TR    PLAY(8),TBL-240 TRANSLATE TO EBCDIC
         MVC   1(3,R3),PLAY+5 MOVE OFFSET TO DISPLAY LINE
         LA    R3,5(R3)       POINT TO NEXT AREA IN DISPLAY LINE
         LA    R7,5           NO. OF FIELDS PER DISPLAY LINE
CKPT020  XC    PLAY,PLAY      CLEAR THE WORK AREA
         MVC   PLAY(4),0(R4)  MOVE DATA TO WORK AREA
         UNPK  PLAY(9),PLAY(5)
         TR    PLAY(8),TBL-240 TRANSLATE TO EBCDIC
         MVC   0(8,R3),PLAY   AND MOVE TO DISPLAY LINE
         LA    R5,4(R5)       UPDATE THE OFFSET
         LA    R3,9(R3)       UPDATE DISPLAY LINE LOCATION
         LA    R4,4(R4)       POINT AT NEXT 4 BYTES OF DATA
         SH    R2,=H'4'       DECREMENT LENGTH BY 4
         C     R2,=F'0'       ?/ANY DATA LEFT
         BNH   CKPT030        NO. GO DISPLAY THE LINE
         BCT   R7,CKPT020     YES, DO ANOTHER FIELD IF THERE IS ROOM
         BAL   R8,DISPLAY1    NO ROOM. DISPLAY THIS LINE
         B     CKPT010        GO GET ANOTHER LINE