         MACRO
&NAME    ASSEND &RC=0
         GBLC  &ERAE
         GBLB  &REENT1
         LCLC  &ERAE1
&ERAE1   SETC  '*'
&ERAE1   SETC  '&ERAE'
         AIF   ('&ERAE1' EQ '').EREND0
         AIF   ('&ERAE1' NE '*').EREND1
.EREND0  ANOP
         MNOTE 'ASSMAIN MACRO IS MISSING'
         MEXIT
.EREND1  ANOP
         MNOTE *,'ASSEND ,CHANGE LEVEL 2 22/07/78 ROCHE IBM 370/158 OS/*
               MVS *ERZ*'
         CNOP  0,4
         AIF   (T'&NAME EQ 'O').EREND2
&NAME    EQU   *
.EREND2  ANOP
         AIF   (&REENT1 EQ 1).REENT
         L     13,&ERAE+4                . ASSEND, TERMINATE ASM
         RETURN (14,12),RC=&RC           .
         MEXIT
.REENT   LR    R1,R13                    . ASSEND, TERMINATE ASM REENT
         L     R13,4(R1)                 .
         FREEMAIN R,LV=72,A=(1)          .
         RETURN (14,12),RC=&RC           .
         MEND
