         MACRO
&NAME    ASSMAIN &REG,&REENT
         GBLC  &ERAE
         GBLB  &REENT1
         LCLB  &NOREG
         LCLA  &A0
         LCLA  &A1
         LCLC  &A2
         LCLA  &A3
         LCLA  &A4
         LCLA  &A5
         LCLC  &AR(14)
         LCLC  &NAME1
&A1      SETA  0
&A2      SETC  '5'
&A3      SETA  0
&AR(1)   SETC  ',R13'
&NAME1   SETC  'P&SYSNDX'
         MNOTE *,'ASSMAIN CSECT ,CHANGE LEVEL 2 &SYSDATE ROCHE IBM 370/*
               158 OS/MVS *ERZ*'
         AIF   ('&NAME' NE '').ERANF0
         MNOTE &A3,'NO NAME SPECIFIED, ASSUMED ''&NAME1'''
&A3      SETA  &A3+1
         AGO   .ERANF0A
.ERANF0  ANOP
&NAME1   SETC  '&NAME'
.ERANF0A ANOP
         AIF   (N'&SYSLIST LT 3).ERANF1
         MNOTE &A3,'ILLEGAL PARAMETER'
&A3      SETA  &A3+1
.ERANF1  ANOP
&A1      SETA  &A1+1
         AIF   (&A1 GT N'&REG).ERANF6
         AIF   (T'&REG(&A1) EQ 'O').ERANF1
         AIF   (&A1 LT 14).ERANF1A
         MNOTE &A3,'MORE THEN 13 REG SPECIFIED'
&A3      SETA  &A3+1
.ERANF1A ANOP
         AIF   (&A0 LT 14).ERANF2
.ERANF2A ANOP
         MNOTE &A3,'REGISTER NOT GENERATED ''&REG(&A1)'''
         MEXIT
&A3      SETA  &A3+1
         AGO   .ERANF1
.ERANF2  ANOP
         AIF   ('&REG(&A1)' EQ '0' OR '&REG(&A1)' EQ 'R0').ERANF2A
         AIF   ('&REG(&A1)' EQ '1' OR '&REG(&A1)' EQ 'R1').ERANF2A
         AIF   ('&REG(&A1)' EQ '14' OR '&REG(&A1)' EQ 'R14').ERANF2A
         AIF   ('&REG(1)' EQ '13' OR '&REG(1)' EQ 'R13').ERANF3X
.ERANF3  ANOP
&A0      SETA  &A0+1
&AR(&A0) SETC  ','.'&REG(&A1)'
         AIF   (&A0 NE 1).ERANF1
&A2      SETC  '&REG(&A1)'
&AR(&A0) SETC  ','.'&REG(&A1)'
         AGO   .ERANF1
.ERANF3X ANOP
&NOREG   SETB  1
         AGO   .ERANF3
.ERANF6  ANOP
         AIF   (&A0 GT 0).ERANF6A
         MNOTE &A3,'NO REGISTER SPECIFIED, SET TO BASE REG ''R13'''
&NOREG   SETB  1
&A3      SETA  &A3+1
.ERANF6A ANOP
&ERAE    SETC  'ASSMAINQ'
         PRINT NOGEN
&NAME1   CSECT                          . INITIATE PROGRAM
         AIF   ('&REENT' NE 'REENT').NOREENT
&REENT1  SETB  1
         AIF   (&NOREG EQ 13).ERANF2A   . SAVE REG 13 NOT ALLOWED
         USING *,R15                    .
         SAVE  (14,12),,*               .
         DROP  R15                      .
         BALR  &REG(1),0                .
         USING *&AR(1)&AR(2)&AR(3)&AR(4)&AR(5)&AR(6)&AR(7)&AR(8)&AR(9)&*
               AR(10)&AR(11)&AR(12)&AR(13)&AR(14)
         LR    R2,R1                    . SAVE PARM
         GETMAIN R,LV=72                . GETMAIN FOR SAVE AREA
         ST    R13,4(R1)                .
         ST    R1,8(R13)                .
         LR    R13,R1                   .
         LR    R1,R2                    .
         AGO   .BOTH
.NOREENT AIF   (&NOREG EQ 1).NORNT13
         SAVE  (14,12),,*               .
         BALR  &REG(1),0                .
         USING *&AR(1)&AR(2)&AR(3)&AR(4)&AR(5)&AR(6)&AR(7)&AR(8)&AR(9)&*
               AR(10)&AR(11)&AR(12)&AR(13)&AR(14)
         CNOP  0,4                      .
         ST    R13,*+12                 .
         BAL   R15,*+76                 .
&ERAE    DS    18F                      .
         ST    R15,8(R13)               .
         LA    R13,&ERAE                .
         AGO   .BOTH
.NORNT13 ANOP
         USING *,15                     .
         SAVE  (14,12),,*               .
         LR    R14,R13                  .
         CNOP  0,4                      .
         BAL   R13,*+76                 .
         DROP  15                       .
         USING &ERAE&AR(1)&AR(2)&AR(3)&AR(4)&AR(5)&AR(6)&AR(7)&AR(8)&AR*
               (9)&AR(10)&AR(11)&AR(12)&AR(13)&AR(14)
&ERAE    DS    18F                      .
         ST    R14,&ERAE+4              .
         ST    R13,8(R14)               .
.BOTH    LA    15,4095                  .
         AIF   (&A0 LT 2).ERANF10
&A0      SETA  0
&A1      SETA  0
.ERANF8  ANOP
&A1      SETA  &A1+1
         AIF   (&A1 GT N'&REG).ERANF10
         AIF   (T'&REG(&A1) EQ 'O').ERANF8
         AIF   ('&REG(&A1)' EQ '0' OR '&REG(&A1)' EQ 'R0').ERANF8
         AIF   ('&REG(&A1)' EQ '14' OR '&REG(&A1)' EQ 'R14').ERANF8
         AIF   ('&REG(&A1)' EQ '1' OR '&REG(&A1)' EQ 'R1').ERANF8
         AIF   (&A0 EQ 0).ERANF9
         LA    &REG(&A1),1(&REG(&A0),15)
.ERANF9  ANOP
&A0      SETA  &A1
         AGO   .ERANF8
.ERANF10 ANOP
R0       EQU   0
R1       EQU   1
R2       EQU   2
R3       EQU   3
R4       EQU   4
R5       EQU   5
R6       EQU   6
R7       EQU   7
R8       EQU   8
R9       EQU   9
R10      EQU   10
R11      EQU   11
R12      EQU   12
R13      EQU   13
R14      EQU   14
R15      EQU   15
         MEND
