         MACRO
&NAME    ELSEDO &DOGROUP=,&MNAME=ELSEDO
&NAME    ELSE  DOGROUP=&DOGROUP,MNAME=&MNAME
         MEND
