         MACRO
&NAME    ENDEVERY &DOGROUP=        INTERCHANGEABLE WITH 'ENDO' EXCEPT
         COPY  $MGBLDEF            . FOR 'ELSEDO' CLAUSE
         AIF   (&$MDGLVL GT 0).OK02
         MNOTE 8,'''ENDEVERY'' INVALID OUTSIDE DO-GROUP'
         MNOTE 0,' - MACRO GENERATION TERMINATED'
         MEXIT
.OK02    ANOP
&NAME    $MENDDO1 DOGROUP=&DOGROUP END ALL BUT HIGHEST LEVEL
         AIF   (&$MDGERR NE 0).QUIT GIVE UP EASILY
         $MENDDO2                  END FINAL LEVEL
.QUIT    MEND
