         MACRO
&NAME    ENDIF &ELSE,&DOGROUP=
         COPY  $MGBLDEF
&NAME    ENDO  &ELSE,DOGROUP=&DOGROUP
         MEND
