CPY      TITLE '*----NSP025----*  MULTI-UTILITY BACKUP PROGRAM'
         PRINT OFF
         MACRO
&NAME    DCBEXITB
         SPACE 2
***********************************************************************
*        DCBEXITB MACRO                                               *
***********************************************************************
         SPACE 2
&NAME    DS    0F
         DC    X'85'                    SET EXIT INDICATOR
         DC    AL3(*+3)                 ADDRESS
         CLC   62(2,1),82(1)            BLOCKSIZE/LRECL
         BHR   14                       GREATER - EXIT
         MVC   62(2,1),82(1)            SET BLKSIZE=LRECL
         NI    36(1),X'E7'              TURN OFF BLOCKED/STANDARD
         BR    14                       EXIT
         SPACE 2
         MEND
   MACRO
   EQUR
         GBLB  &ACSC1(8)
         GBLA  &ACSC2(4)
         GBLC  &ACSC3(4)
         AIF   (&ACSC1(3)).DID
&ACSC1(3) SETB 1
         SPACE 2
***********************************************************************
*        EQUR MACRO - REGISTER EQUATES                                *
***********************************************************************
         SPACE 2
R0       EQU   0
R1       EQU   1
R2       EQU   2
R3       EQU   3
R4       EQU   4
R5       EQU   5
R6       EQU   6
R7       EQU   7
R8       EQU   8
R9       EQU   9
R10      EQU   10
R11      EQU   11
R12      EQU   12
R13      EQU   13
R14      EQU   14
R15      EQU   15
         SPACE 2
         MEXIT
.DID     MNOTE 0,'REG EQUATES PREVIOUSLY ISSUED, IGNORED'
   MEND
         MACRO
&NAME    GTDATE &ADDR,&SLASH=YES
         LCLB  &SL
         SPACE 2
***********************************************************************
*        GTDATE MACRO - OBTAIN DATE AS MMDDYY OR MM/DD/YY             *
***********************************************************************
         SPACE 2
         AIF   ('&SLASH' NE 'YES').NSLA
&SL      SETB  1
         AGO   .NSLB
.NSLA    AIF   ('&SLASH' EQ 'NO').NSLB
         MNOTE 8,'INVALID SLASH PARAM, NO ASSUMED'
.NSLB    ANOP
&NAME    LA    0,7                      SET UP FOR BOUNDARY CALC
         LA    14,12+7(13)              SET WORK ADDRESS IN SAVE AREA
         OR    14,0
         XR    14,0                     SET TO DOUBLEWORD
         L     1,16                     GET CVT
         MVC   4(4,14),56(1)            MOVE DATE TO WORK
         MVC   29(1,14),5(14)           SAVE
         MVC   8(12,14),GTT&SYSNDX      SET DATE TABLE
         TM    29(14),X'01'             ODD
         BO    GTC&SYSNDX               NOT LEAP
         TM    29(14),X'12'             CHECK DIV BY 4
         BM    GTC&SYSNDX               NOT LEAP
         MVI   9(14),29                 SET LEAP DAYS
GTC&SYSNDX SR  15,15                    SET WORK REG
         SR    1,1
         XC    0(6,14),0(14)            CLEAR FOR CONVERT
         CVB   0,0(14)                  GET DAYS
GTL&SYSNDX IC  15,8(1,14)               GET FACTOR
         LA    1,1(0,1)                 SET MONTH AND NEW FACTOR
         SR    0,15                     REDUCE DAYS
         BP    GTL&SYSNDX               LOOP TO EXHAUST DAYS
         AR    0,15                     RESTORE DAYS
         MH    0,=H'10'                 ADJUST FOR EDITS
         MH    1,=H'1000'               ADJUST MONTH
         AR    1,0                      SET MMDD0
         CVD   1,0(14)                  SET 00MMDD0C IN WORD
         UNPK  20(3,14),5(2,14)         SET MM
         UNPK  22+&SL.(3,14),6(2,14)    SET DD
         UNPK  24+&SL*2(3,14),29(2,14)  SET YY
         AIF   (NOT &SL).CONT
         MVI   22(14),C'/'              SET SLASHES
         MVI   25(14),C'/'
.CONT    AIF   ('&ADDR'(1,1) NE '(').NORG
         MVC   0(6+&SL*2,&ADDR(1)),20(14)
         AGO   .CONT1
.NORG    MVC   &ADDR.(6+&SL*2),20(14)
.CONT1   B     GTX&SYSNDX
         SPACE
*---------------------------------------------------------------------*
*        DATE TABLE INDEX SET                                         *
*---------------------------------------------------------------------*
         SPACE
GTT&SYSNDX DC  AL1(31,28,31,30,31,30,31,31,30,31,30,31)
GTX&SYSNDX DS  0H
         SPACE 2
         MEND
         MACRO
&NAME    INIT  &RG=1,&PC=,&REQ=,&PATCH=,&SAVE=,&PARM=,&PGM=,&ENTRY
         GBLB  &ACSC1(8)
         GBLA  &ACSC2(4)
         GBLC  &ACSC3(4)
         LCLA  &A1,&A2,&A3,&A4
         SPACE 2
***********************************************************************
*        INIT MACRO - PROGRAM ENTRY AND HOUSEKEEPING                  *
***********************************************************************
         SPACE 2
         AIF   (T'&REQ EQ 'O').REGS
         AIF   ('&REQ' EQ 'NO').EREGS
         MNOTE 0,'INVALID ''REQ'' PARAM, NO ASSUMED'
         AGO   .EREGS
.REGS    ANOP
.* ISSUE EQUR MACRO FOR REGISTER EQUATED SYMBOLS
         EQUR
.EREGS   ANOP
.* CHECK PC AND SET APPROPRIATE SWITCH
         AIF   (T'&PC EQ 'O').NOPCX
         AIF   ('&PC' NE 'ARM' AND '&PC' NE 'YES').NOPC
&ACSC1(1) SETB 1
         AGO   .NOPCX
.NOPC    ANOP
         MNOTE 0,'INVALID PC, IGNORED'
.NOPCX   AIF   (T'&ENTRY EQ 'O').NOENTRY
         AIF   ('&ENTRY' EQ 'ENTRY').ENTOK
         MNOTE 4,'INVALID POSITIONAL OPERAND, NO ENTRY GENERATED'
         AGO   .NOENTRY
.ENTOK   ANOP
         ENTRY &NAME
.NOENTRY ANOP
&NAME    DS    0H
*---------------------------------------------------------------------*
*        ISSUE SAVE MACRO                                             *
*---------------------------------------------------------------------*
         SAVE  (14,12),,&SYSECT-&SYSDATE-&SYSTIME
         SPACE 2
*---------------------------------------------------------------------*
*        SAVE PARM, GET SAVE AREA, SET UP BASE REGS                   *
*---------------------------------------------------------------------*
         SPACE 2
         LR    2,1                      SAVE PASSED PARAMS
.NPARM1  AIF   (T'&SAVE EQ 'O').NOSAVE
         USING &NAME,15                 SET UP BASE
&ACSC3(1) SETC '&SAVE'                  SAVE LENGTH
         LA    0,&SAVE+72+&ACSC1(1)*4   SET GETMAIN LENGTH
* ISSUE GETMAIN FOR SAVE AREA AND WORK SPACE
         GETMAIN R,LV=(0)
.CHAIN   ST    13,4(1)                  SAVE BACKWARD POINTER
         ST    1,8(13)                  SAVE FORWARD POINTER
         LR    13,1                     SET SAVE AREA
         DROP  15
         AGO   .ADDRS
.NOSAVE  USING &NAME,15                 SET UP BASE
         CNOP  0,4                      SET ON BOUNDRY
         BAL   1,*+76+&ACSC1(1)*4       SET REG SAVE PLUS WORK AREA
         USING *,13
         DS    18F                      SAVE AREA
         AIF   (NOT &ACSC1(1)).CHAIN
         DS    F                        SPIE SAVE AREA
         AGO   .CHAIN
.ADDRS   AIF   (T'&SAVE EQ 'O').NSAV1
         AIF   (T'&RG NE 'O').OKBASE
         MNOTE 4,'YOU REQUESTED NO BASE REGISTERS, WILL GIVE YOU ONE'
&A1      SETA  1
         AGO   .NOBASE
.OKBASE  ANOP
&A1      SETA  &RG
.NOBASE  ANOP
&A2      SETA  11
&A3      SETA  1
&A4      SETA  0
         BALR  12,0                     SET BASE REG
         USING *,12
.ADRLP   ANOP
&A1      SETA  &A1-1
         AIF   (&A1 EQ 0).EADDR
         LA    &A2,4095(&A2+1)          SET MORE BASES
         USING *+4095*&A3-&A4-4*&A3-&ACSC1(1)*4,&A2
&A3      SETA  &A3+1
&A2      SETA  &A2-1
         AGO   .ADRLP
.NSAV1   ANOP
         AIF   (T'&RG EQ 'O').OKBASE1
         AIF   (T'&RG NE 'O').OKBASE1
         MNOTE 4,'YOU REQUESTED NO BASE REGISTERS, WILL GIVE YOU ONE'
&A1      SETA  1
         AGO   .NOBASE1
.OKBASE1 ANOP
&A1      SETA  &RG
.NOBASE1 ANOP
&A2      SETA  12
&A3      SETA  1
&A4      SETA  82
         AGO   .ADRLP
.EADDR   AIF   (T'&PARM EQ 'O').PATCHS
         SPACE 2
*---------------------------------------------------------------------*
*        SAVE PARM ADDRESS OR INFO                                    *
*---------------------------------------------------------------------*
         SPACE 2
         AIF   ('&PARM(2)' NE 'ADDR').NPARM2
         ST    2,&PARM(1)               SAVE PARM ADDRESS POINTER
         AGO   .PATCHS
.NPARM2  AIF   ('&PARM(2)' NE 'DATA').NPARM3
         L     1,0(0,2)                 GET PARM ADDRESS
         LH    3,0(0,1)                 GET LENGTH
         LA    3,1(0,3)                 SET FOR MVC
         EX    3,*+8                    DO THE MOVE
         B     *+10                     GO AROUND
         MVC   &PARM(1).(0),0(1)        EXECUTED MOVE
         AGO   .PATCHS
.NPARM3  MNOTE 4,'INVALID ''PARM'' PARAM, NO INFO SAVED'
.PATCHS  AIF   ('&PATCH' EQ 'NO').LEAVE
         AIF   ('&PATCH' NE 'YES').LEAVE
         SPACE 2
*---------------------------------------------------------------------*
*        PATCH AREA                                                   *
*---------------------------------------------------------------------*
         B     *+104                    GO AROUND
         NOP   *                        SET UP ADDRESS INDICATOR
         DC    96X'00'                  CLEAR PATCH AREA
.LEAVE   AIF   ('&PC' NE 'YES').NPCYES
         SPACE 2
*---------------------------------------------------------------------*
*        ISSUE SPIEPC MACRO                                           *
*---------------------------------------------------------------------*
         SPACE 2
         SPIEPC
.NPCYES ANOP
         SPACE 2
         AIF   (T'&PGM EQ 'O').OUT
*        ISSUE WTO FOR PROGRAM NAME
         SPACE
         WTO   '&PGM EXECUTING',ROUTCDE=2
         SPACE
.OUT     ANOP
         LR 1,2                         RESTORE PARM INFO
         SPACE 2
         MEND
         MACRO
&NAME    IOBGEN &DCB=,&CCWS=,&ECB=,&FLAGS=
         LCLB  &FLG(3)                  FLAG1 BIT ID
         LCLA  &FCNT,&LCNT
         AIF   (T'&FLAGS EQ 'O').NOFLG
&FCNT    SETA  N'&FLAGS
.LOOP1   ANOP
&LCNT    SETA  1
.LOOP2   AIF   ('&FLAGS(&FCNT)' EQ 'DCCCUN'(&LCNT,2)).SET
.UPLP    ANOP
&LCNT    SETA  &LCNT+2
         AIF   (&LCNT LT 6).LOOP2
&FCNT    SETA  &FCNT-1
         AIF   (&FCNT GT 0).LOOP1
         AGO   .NOFLG
.SET     ANOP
&FLG((&LCNT+1)/2) SETB 1
         AGO   .UPLP
.NOFLG   ANOP
&NAME    DS    0F                       ALIGN
         DC    B'&FLG(1)&FLG(2).0000&FLG(3).0'  FLAG BYTE 1
         DC    AL3(0)                   FILL
         DC    A(&ECB)                  ECB ADDRESS
         DC    2A(0)
         DC    A(&CCWS)                 CCW STRING ADDRESS
         DC    A(&DCB)                  DCB ADDRESS
         DC    2A(0)
         DS    CL8                      MBBCCHHR AREA FOR DA
         MEND
         MACRO
&NAME    LEAVE &SAVE=,&RC=0,&RECREG=
         GBLB  &ACSC1(8)
         GBLA  &ACSC2(4)
         GBLC  &ACSC3(4)
         SPACE 2
***********************************************************************
*        LEAVE MACRO                                                  *
***********************************************************************
         SPACE 2
&NAME    DS    0H
         AIF   (NOT &ACSC1(2)).NOSP1
*---------------------------------------------------------------------*
*        RESET SPIE ROUTINE                                           *
*---------------------------------------------------------------------*
         SPACE 2
         L     1,&ACSC3(1)+72(13)       GET SAVED ADDRESS
* ISSUE SPIE MACRO
         SPIE  MF=(E,(1))
         SPACE 2
.NOSP1   ANOP
*---------------------------------------------------------------------*
*        RESET SAVE AREA AND EXIT                                     *
*---------------------------------------------------------------------*
         SPACE 2
         AIF   (T'&SAVE EQ 'O').NSAV
         LR    1,13                     SET FOR RELEASE
.NSAV    L     13,4(13)                 UNCHAIN SAVE AREA
         AIF   (T'&SAVE EQ 'O').NSAV1
* ISSUE FREEMAIN MACRO
         LA    0,&SAVE+72+&ACSC1(1)*4   GET LENGTH OF AREA
         FREEMAIN R,LV=(0),A=(1)
.NSAV1   AIF   (T'&RECREG EQ 'O').RET
         AIF   ('&RECREG'(1,1) EQ '(').RECOK
         MNOTE 4,'INVALID RECREG, NOT REGISTER NOTATION, IGNORED'
         AGO   .RET
.RECOK   ST    &RECREG(1),24(13)        SAVE RECREG IN R1 AREA
.RET     RETURN (14,12),T,RC=&RC
         SPACE 2
         MEND
         MACRO
&NAME    PRNT  &OVF=,&CNTR=,&RESET=,&LINK=,&PAGE=,&HEADR=,             X
               &HLIST=,&EXIT=,&ID=,&DCB=,&CLEAR=NO
         LCLA  &LA3,&LA4,&LA5
         LCLB  &B1,&EBR
         LCLC  &LC1,&LC2
         AIF   (T'&NAME NE 'O' AND K'&NAME LT 8).NAMOK
         MNOTE 9,'MISSING OR LONG NAME FIELD, MACRO IGNORED.'
         AGO   .ENDIT
.NAMOK   ANOP
         SPACE
***********************************************************************
*        PRINT SUBROUTINE                                             *
         CNOP  0,4
&NAME    EQU   *
&LA3     SETA  N'&HEADR
&LA4     SETA  1
         AIF   (T'&CNTR  NE 'O').NO1
         MNOTE 9,'CNTR= OMITTED, MACRO NOT ASSEMBLED'
         AGO   .ENDIT
.NO1     AIF   (T'&LINK  NE 'O').NO2
         MNOTE 9,'LINK= OMITTED, MACRO NOT ASSEMBLED'
         AGO   .ENDIT
.NO2     AIF   (T'&RESET NE 'O').NO2X
         MNOTE *,'RESET= OMITTED, DEFAULT=1'
&LC1     SETC  '1'
         AGO   .NO3
.NO2X    ANOP
&LC1     SETC  '&RESET'
.NO3     AIF   (T'&OVF NE 'O').NO3X
         MNOTE *,'OVF= OMITTED, DEFAULT=56'
&LC2     SETC  '56'
         AGO   .NO4
.NO3X    ANOP
&LC2     SETC  '&OVF'
.NO4     AIF   (T'&HEADR EQ 'O' AND T'&HLIST EQ 'O').NO4A
         CP    &CNTR,=P'&LC2'           CHECK FOR OVERFLOW
         AGO   .NO4B
.NO4A    ANOP
         MVC   PR&SYSNDX+1(1),CTRL&ID   SAVE CONTROL CHARACTER
         CP    &CNTR,=P'&LC2'          CHECK FOR OVERFLOW
.NO4B    BH    PH&SYSNDX               YES, GO TO OVERFLOW ROUTINE
&NAME.A  LA    0,CTRL&ID                POINT REG 0 TO PRINT LINE
PI&SYSNDX EQU  *
         AIF   (T'&DCB EQ 'O').DFLTDCB
         AIF   (N'&DCB GT 1).DCBFULL
         AIF   ('&DCB'(1,1) EQ '(').DCBREG
         LA    1,&DCB                   LOAD DCB ADDRESS INTO REG 1
         ST    1,&NAME.D                SAVE ADDRESS IN FULLWORD
         AGO   .NEXT1
.DCBFULL ANOP
         MVC   &NAME.D,&DCB(1)          MOVE DCB ADDRESS TO SAVE AREA
         AGO   .NEXT1
.DCBREG  ANOP
         ST    &DCB,&NAME.D             SAVE ADDRESS IN FULL WORD
         AGO   .NEXT1
.DFLTDCB ANOP
         LA    1,IJSYSLS                LOAD DCB ADDRESS
         ST    1,&NAME.D                SAVE ADDRESS IN FULLWORD
.NEXT1   ANOP
         L     1,&NAME.D                POINT REG 1 TO DCB
.ERRET   ANOP
         PUT   (1),(0)
.ARND1   ANOP
         AIF   (T'&HEADR NE 'O' OR T'&HLIST NE 'O').NO4C
PR&SYSNDX MVI  CTRL&ID,X'00'            RESTORE CONTROL CHARACTER
.NO4C    ANOP
         AIF   ('&CLEAR' NE 'YES').NO4D
&NAME.C  NOPR  &LINK                    CLEAR BRANCH SWITCH
         MVI   CTRL&ID,C' '             CLEAR OUTPUT PRINT LINE
         MVC   P0&ID,CTRL&ID
.NO4D    ANOP
         BR    &LINK                    RETURN VIA LINK REGISTER
PH&SYSNDX ZAP  &CNTR,=P'&LC1'          RESET LINE COUNTER
         AIF   ('&CLEAR' NE 'YES').NO4E
         AIF   (T'&HEADR EQ 'O' AND T'&HLIST EQ 'O').NO4E
         OI    &NAME.C+1,X'F0'          SET CLEAR BRANCH SWITCH
.NO4E    ANOP
         AIF   (T'&HEADR NE 'O' OR T'&HLIST NE 'O').NO5
         MVI   CTRL&ID,C'1'             SKIP TO CHANNEL ONE
         B     &NAME.A
         AGO   .NO10
.NO5     ST    &LINK,PS&SYSNDX          STORE RETURN ADDRESS
         AIF   (T'&EXIT EQ 'O').NOEX1
         BAL   &LINK,PXT&SYSNDX         BRANCH TO EXIT ROUTINE
.NOEX1   ANOP
.NO50    AIF   (T'&PAGE EQ 'O').NO5A
         AIF   (N'&PAGE NE 2).NO8
         AIF   (K'&PAGE(2) GT 1).NO8
&B1      SETB  1
&LA5     SETA  1
.X1      AIF   ('&PAGE(2)' EQ '13579'(&LA5,1)).X2
         AIF   (&LA5 EQ 5).X11
&LA5     SETA  &LA5+1
         AGO   .X1
.X11     ANOP
         AP    &NAME.P,=P'10'
         AGO   .X3
.X2      ANOP
         AP    &NAME.P,=P'1'
.X3      ANOP
         MVC   &PAGE(1)(&PAGE(2)+1),MS&SYSNDX
         ED    &PAGE(1)(&PAGE(2)+1),&NAME.P
.NO5A    AIF   (T'&HEADR EQ 'O').NO5B
         LA    0,&HEADR(&LA4)
.EBHR    ANOP
         BAL   &LINK,PI&SYSNDX          BRANCH TO PRINT
         AIF   (&LA3 EQ &LA4).NO5B
&LA4     SETA  &LA4+1
         AGO   .NO5A
.NO5B    AIF   (T'&HLIST EQ 'O').NO6
         ST    2,PS&SYSNDX+4
         LA    2,&HLIST
PL&SYSNDX CLI  0(2),X'FF'
         BE    PX&SYSNDX
         L     0,0(2)
.EBLR    ANOP
         BAL   &LINK,PI&SYSNDX
         AP    &CNTR,=P'1'              INCREASE LINE COUNTER
         LA    2,4(2)
         B     PL&SYSNDX
PX&SYSNDX L    2,PS&SYSNDX+4
.NO6     L     &LINK,PS&SYSNDX          LOAD RETURN ADDRESS
         AIF   ('&CLEAR' NE 'YES').NO7
         NI    &NAME.C+1,X'0F'          RESET CLEAR BRANCH SWITCH
.NO7     B     &NAME.A                  BRANCH AND PRINT DETAIL
PS&SYSNDX DS   F
         AIF   (T'&HLIST EQ 'O').NO7A
         DS    F
.NO7A    AIF   (NOT &B1).NO10
&LA5     SETA  &PAGE(2)/2+1
&NAME.P  DC    PL&LA5'0'
&LA5     SETA  &PAGE(2)
MS&SYSNDX DC   C' '
         DC    &LA5.X'20'
         AGO   .NO10
.NO8     ANOP
         MNOTE *,'INVALID PAGE PARAMS, IGNORED'
         AGO   .NO5A
.NO10    ANOP
&NAME.D  DC    F'0'
PXT&SYSNDX DS  0H
.ENDIT   ANOP
*                                                                     *
***********************************************************************
         SPACE
         MEND
         MACRO
         PRTAREA &A,&EBR=NO,&ID=
         LCLA  &B,&C
         SPACE
***********************************************************************
*        PRTAREA - GENERATE PRINT AREA                                *
         SPACE
         AIF   ('EBR' EQ 'YES').A1A
         AIF   (T'&A EQ 'N').A2
.A1      ANOP
         MNOTE *,'INPROPER OR MISSING OPERAND, 132 ASSUMED.'
&B       SETA  132
         AGO   .A3
.A1A     AIF   (T'&A EQ 'O').A1
.A2      AIF   (&A GT 132).A1
&B       SETA  &A
.A3      ANOP
         AIF   ('&EBR' NE 'YES').A31
EBRC1&ID DS    CL1                      EBR POS 1
EBRC2&ID DS    CL1                      EBR POS 2
.A31     ANOP
CTRL&ID  DC    C' '                     CONTROL POSITION
P0&ID    DS    0CL&B                    CLEARING POSITION
.A4      ANOP
&C       SETA  &C+1
         AIF   (&C GT &B).A5
P&C&ID   DC    C' '
         AGO   .A4
.A5      ANOP
         AIF   ('&EBR' NE 'YES').A51
EBRC3&ID DS    CL1                      EBR POS 3
.A51     ANOP
*                                                                     *
***********************************************************************
         SPACE
         MEND
         MACRO
&N       SORT  &TAB,&SEQ=H,&KEY=
         LCLC  &CL1,&CL2,&TL1,&TL2,&DISP
&N       DS    0H
         AIF   ('&TAB'(1,1) EQ '(').REG
&TL1     SETC  'L'''
&TL2     SETC  '&TAB'
         AGO   .LOK
.REG     ANOP
         AIF   (T'&TAB(2) NE 'O').ROK
         MNOTE 0,'NO ENTRY LENGTH / GENERATION TERMINATED'
         MEXIT
.ROK     ANOP
&TL1     SETC  '&TAB(2)'
&TL2     SETC  ''
.LOK     ANOP
         AIF   (T'&KEY EQ 'O').DKEY
&DISP    SETC  '&KEY(1)'
         AIF   (T'&KEY(2) EQ 'O').DLEN
&CL1     SETC  '&KEY(2)'
&CL2     SETC  ''
         AGO   .COK
.DKEY    ANOP
&DISP    SETC  '0'
.DLEN    ANOP
&CL1     SETC  '&TL1'
&CL2     SETC  '&TL2'
.COK     ANOP
*GJS* SORT MACRO   CHANGE LEVEL 0-0
         AIF   (T'&TAB(2) EQ 'O').LA
         AIF   ('&TAB(1)' EQ '1').R1
         LR    1,&TAB(1)
         AGO   .R1
.LA      ANOP
         LA    1,&TAB
.R1      ANOP
ST#1&SYSNDX LR 14,1
         LA    15,&TL1&TL2.(1)
         CLI   0(15),X'FF'
         BE    ST#5&SYSNDX
ST#2&SYSNDX CLC &DISP.(&CL1&CL2,14),&DISP.(15)
         BN&SEQ ST#3&SYSNDX
         LR    14,15
ST#3&SYSNDX LA 15,&TL1&TL2.(15)
         CLI   0(15),X'FF'
         BNE   ST#2&SYSNDX
         CR    14,1
         BNH   ST#4&SYSNDX
         XC    0(&TL1&TL2,1),0(14)
         XC    0(&TL1&TL2,14),0(1)
         EX    0,*-12
ST#4&SYSNDX LA 1,&TL1&TL2.(1)
         B     ST#1&SYSNDX
ST#5&SYSNDX EQU *
*
         MEND
         MACRO
&NAME    URGEN &TYPE,&EOD=
         SPACE 2
***********************************************************************
*        URGEN MACRO                                                  *
***********************************************************************
         SPACE 2
         AIF   ('&TYPE' EQ 'READ').RDR
         AIF   ('&TYPE' EQ 'PUNCH').PCHA
         AIF   ('&TYPE' EQ 'PRINT').PRT
         AIF   ('&TYPE' EQ 'PUNCH80').PCH80
         AIF   ('&TYPE' EQ 'PUNCH81').PCH
         MNOTE 8,'INVALID GEN TYPE, MACRO TERMINATED'
         MEXIT
.PRT     ANOP
&NAME    DCB   DDNAME=&NAME,MACRF=PM,DSORG=PS,                         X
               LRECL=133,RECFM=FBA,EXLST=URGN&SYSNDX
         SPACE 2
URGN&SYSNDX DCBEXITB
         SPACE 2
         MEXIT
.RDR     ANOP
         AIF   (T'&EOD NE 'O').RDRA
         MNOTE 8,'MISSING EOD PARAMETER, MACRO TERMINATED'
         MEXIT
.RDRA    ANOP
&NAME    DCB   DSORG=PS,MACRF=GM,DDNAME=&NAME,EODAD=&EOD
         SPACE 2
         MEXIT
.PCH80   ANOP
&NAME    DCB   DDNAME=&NAME,DSORG=PS,MACRF=PM,                         X
               LRECL=80,RECFM=FB,EXLST=URGN&SYSNDX
         SPACE 2
URGN&SYSNDX DCBEXITB
         SPACE 2
         MEXIT
.PCHA    MNOTE 0,'PUNCH 81 BYTE WITH ASA ASSUMED.'
.PCH     ANOP
&NAME    DCB   DDNAME=&NAME,DSORG=PS,MACRF=PM,                         X
               LRECL=81,RECFM=FBA,EXLST=URGN&SYSNDX
         SPACE 2
URGN&SYSNDX DCBEXITB
         SPACE 2
         MEND
         GBLB  &ACSC1(8)
         GBLA  &ACSC2(4)
         GBLC  &ACSC3(4)
         PRINT ON
***********************************************************************
*                                                                     *
*        M E T H O D   O F   O P E R A T I O N                        *
*                                                                     *
*        THIS ROUTINE IS A DRIVER FOR THE IEBCOPY UNLOAD              *
*        FUNCTION.  ITS PURPOSE IS TO AVOID ABENDS AND JCL            *
*        FAILURES DUE TO MISSING DATASETS.                            *
*                                                                     *
*        THE DATASETS TO BE BACKED UP WILL BE IDENTIFIED IN           *
*        A CONTROL FILE WHICH WILL BE READ BY THE PROGRAM.            *
*        IN ADDITION, A STATUS LISTING WILL ALSO BE PRODUCED.         *
*                                                                     *
*        JCL WILL MEARLY ALLOCATE THE DEVICES AS REQUIRED             *
*        SO THAT THIS DRIVER WILL BE RESPONSIBLE FOR                  *
*        CHANGING THE DATASET NAMES AND POINTERS.                     *
*                                                                     *
*        AFTER THE DATASET IS IDENTIFIED AND LOCATED, THE             *
*        APPROPRIATE TIOT ENTRY IS FOUND AND THE JFCB IS              *
*        MODIFIED ACCORDING TO THE TAPE AND DISK REQUIREMENTS.        *
*        THIS WILL BE VERIFIED AFTER IEBCOPY HAS BEEN RUN             *
*        SO THAT IF THERE IS A TAPE OVERRUN, THE FILE                 *
*        WILL BE RECOPIED  TO THE TAPE AGAIN.                         *
*                                                                     *
***********************************************************************
NSP025   START 0
         SPACE
SSS      INIT  PGM=NSP025,RG=2
         SPACE
         ST    R1,PARMAD                SAVE FOR IEBCOPY
         SPACE
         EXTRACT $TIOT,FIELDS=TIOT
         SPACE
         LA    R2,JFCBD1                POINT TO MODEL AREA
         USING JFCBDSNM,R2
         SPACE
         OI    JFCBTSDM,JFCNDCB+JFCPAT  SET NO DCB AND PAT OK
         MVI   JFCBLTYP,SR              SET STD LABELS
         OI    JFCBMASK+4,X'80'         FORCE WRITE BACK
         MVI   JFCBIND2,JFCSHARE+JFCOLD IND OLD/SHARE
         MVI   JFCBNVOL,1               SET ONLY ONE VOL
         MVI   JFCBVLCT,1               AND IN SECOND PLACE
         SPACE 2
         SPACE
**00000000000000000000000000000000000000000000000000000000000000000000*
*        CHECK THAT OUTPUT FILE IS A TAPE AND IS PROPER               *
**00000000000000000000000000000000000000000000000000000000000000000000*
         SPACE
         RDJFCB TAPE                    READ JFCB
         LA    R2,JFCBT1                POINT FOR ADDRESSABILITY
         USING JFCBDSNM,R2              ADDRESS
         LH    R1,JFCBFLSQ              GET SEQ NUMBER
         LTR   R1,R1                    IS IT HERE?
         BZ    NEWA                     NO, START AT BEGIN
         BCTR  R1,0                     REDUCE FOR ROUTINES
         STH   R1,FILENO                SET IN CONTROL AREA
         DROP  R2
         SPACE
***********************************************************************
*        POINT TO NEW AREA FOR JFCB                                   *
***********************************************************************
         SPACE
NEWA     EQU   *
         BAL   R10,CKTIOT               CHECK FOR TAPE
         SPACE
         USING UCB,R1
         SPACE
         MVC   CAM2TYP,UCBTYP           SET DEVICE TYPE
         SPACE
         DROP  R1
         SPACE
         MVC   DDNAME(2),=C'DD'         RESET DD PREFIX
         MVI   FTYPE,X'20'              SET UCB TYPE
         LA    R1,JFCBT2                AREA
         STCM  R1,B'0111',EXTAPE+1      SET IN LIST
*000000000000000000000000000000000000000000000000000000000000000000000*
*        OPEN OUR CONTROL DATASET                                     *
*000000000000000000000000000000000000000000000000000000000000000000000*
         SPACE
         GTDATE HD1+90
         OPEN (OUTPUT,OUTPUT,INPUT)     OPEN FILES
         TITLE 'IEBCOPY INVOCATION PROGRAM'
         SPACE
G1       EQU   *
***********************************************************************
*        WE WILL NOW READ A CONTROL STATEMENT                         *
*        FROM THE INPUT FILE.  IT WILL HAVE THE NAME OF THE           *
*        DATASET TO BE BACKED UP TO TAPE.                             *
***********************************************************************
         SPACE
         NI    SW1,255-RECAT            RESET RECAT BIT
         MVC   VERB,BLANKS              BLANK VERB
         MVC   INAREA,BLANKS            BLANK NAME
         MVC   HOLDNAME,BLANKS          BLANK NAME
         MVI   AUTO,C'*'                INDICATE MANUAL
         TM    SW1,VSA1                 IS VSAM IN PROGRESS?
         BO    DVSA                     YES, CONTINUE
         GET   INPUT,IOAREA             GET IT
         LA    R2,INAREA                POINT TO RECEIVE
         LA    R3,IOAREA                POINT TO STATEMENT
         LA    R4,68                    MAX LENGTH
         CLI   IOAREA,C' '              ANY VERB
         BE    NOVRB                    NO
         MVC   VERB,IOAREA              SET IT
         CLC   VERB,=C'VSAM '           IS IT VSAM CALL?
         BE    AMSIT                    YES, DO IT NOW
         CLI   IOAREA+4,C' '            ALL OK?
         BNE   TERR                     INVALID VERB
         LA    R3,IOAREA+4              POINT PAST IT
NOVRB    EQU   *
         CLI   0(R3),C' '               ANY NAME YET?
         BNE   FND1                     FOUND IT
         LA    R3,1(R3)
         BCT   R4,NOVRB                 TRY AGAIN
         B     NAMERR                   TOO BAD
         SPACE
FND1     EQU   *
         CH    R4,=H'44'                ENOUGH?
         BNH   FND2                     NOT MAX
         LA    R4,44                    LOAD IT
FND2     EQU   *
         MVC   0(1,R2),0(R3)            MOVE A CHAR
         LA    R3,1(R3)                 NEXT INPUT
         LA    R2,1(R2)                 NEXT OUTPUT
         CLI   0(R3),C' '               END?
         BE    FND3                     YES
         CLI   0(R3),C','               IS IT DELIM?
         BE    FND3                     YES
         BCT   R4,FND2                  MOVE MORE
         B     NAMERR                   TOO BAD
         SPACE
FND3     EQU   *
         MVC   HOLDNAME,INAREA          SAVE ORIGINAL NAME
         SPACE
         CLI   0(R3),C' '               TRUE END?
         BE    CKCAT                    YES, CHECK CATALOG
         CLC   =C',RECAT',0(R3)         RECAT?
         BNE   CATERR                   NO, ERROR
         OI    SW1,RECAT                SET RECAT BIT
         SPACE
CKCAT    EQU   *
         LOCATE CAM1                    READ THE CATALOG
         LTR   R15,R15                  IS IT OK?
         BNZ   LOCERR                   TOO BAD, CAN'T FIND IT
         CLI   CAMVNUM,1                ONE VOL?
         BNE   CNERR                    TOO BAD
         CLI   CAMTYPE+2,X'20'          DASD?
         BNE   DASDERR                  TOO BAD
         MVC   DDVOLS(6),CAMVOL         SET VOLSER ID
         MVC   P55(6),CAMVOL            PLACE FOR PRINTING
         OBTAIN OBT1                    READ THE DSCB
         LTR   R15,R15                  IS ALL OK?
         BNZ   OBERR                    NO, TOO BAD
         SPACE
         CLI   VERB,C' '                ANY VERB
         BE    NOVERB                   NO, CHECK AUTO
         SPACE
         BAL   R10,CKTIOT               CHECK TIOT
         SPACE
         USING UCB,R1                   ADDRESS UCB
         SPACE
         CLC   UCBVOLI,DDVOLS           CHEC IT OUT
         BNE   IDERR                    NOT CORRECT
         MVC   CAM3TYP,UCBTYP           SET DASD TYPE CODE (SCR)
         SPACE
         DROP  R1
         SPACE
         CLC   VERB,=C'MOVE'            VERB CHECK
         BE    MOVEIT
         CLC   VERB,=C'GENR'
         BE    GENERIT
         CLC   VERB,=C'COPY'
         BE    COPYIT
         B     TERR                     TOO BAD
         SPACE
NOVERB   EQU   *
         LA    R2,DSCBAREA              POINT TO DSCB
         USING DS1FMTID,R2              ADDRESS
         MVI   AUTO,C' '                INDICATE AUTO
         TM    DS1DSORG+1,VSAM          IS IT VSAM
         BO    ORGERR                   TOO BAD
         BAL   R10,CKTIOT               CHECK OUT, NOT VSAM
         USING UCB,R1