         MACRO
&NAME    DSG
&NAME    DC    XL2'FA00'                DISENGAGE
         MEND
