         MACRO
&NAME    FM
&NAME    DC    XL2'FC00'                FEED FROM MERGE
         MEND
