         MACRO
&NAME    GENSD
&NAME    IHBGAM2 10886
         MEND
