         MACRO
&NAME  GEOS
&NAME    IHBGAM2 10881
         MEND
