         MACRO
&NAME    GESD
&NAME    IHBGAM2 10884
         MEND
