         MACRO
&NAME  GSRT
&NAME    IHBGAM2 10882
         MEND
