         MACRO
&NAME    GTRU  &ADDR,&GROUP
&NAME    IHBGAM1 11007,&ADDR,&GROUP
         MEND
