         MACRO
&NAME    INDEX &LIST,&DUMMY=
&NAME    LOCATE &LIST                   EXPAND USING LOCATE
         MEND
