         MACRO
&NAME    LSW
&NAME    DC    0H'0',XL2'4400'
         MEND
