         MACRO
&NAME    SOM
&NAME    DC    0H'0',X'4500'
         MEND
