         MACRO
&NAME    SPC
&NAME    DC    XL2'EC00'                SELECT M/P BY POCKET CTR
         MEND
