         MACRO
&NAME    BER   &R
&NAME    BCR   8,&R                BR ON EQUAL
         MEND
