         MACRO
&NAME    BLR   &R
&NAME    BCR   4,&R                BR ON LOW
         MEND
