         MACRO
&NAME    BMR   &R
&NAME    BCR   4,&R                BR ON MINUS OR MIXED
         MEND
