         MACRO
&NAME    BNER  &R
&NAME    BCR   7,&R                BR ON NOT EQUAL
         MEND
