         MACRO
&NAME    BNLR  &R
&NAME    BCR   11,&R               BR ON NOT LOW
         MEND
