         MACRO
&NAME    BNMR  &R
&NAME    BCR   11,&R               BR ON NOT MINUS
         MEND
