         MACRO
&NAME    EDIT  &TO,&FROM,&EDWD
         LCLA  &CNT1,&CNT2
         LCLA  &D
         LCLB  &EDMK
         LCLC  &LTH
         LCLC  &M(24)
         LCLC  &EDCH
         LCLC  &SD
.*
         AIF   (T'&EDWD NE 'O').A1      IS EDIT WORD OMITTED
         MNOTE 4,'NO EDIT FORMAT GIVEN'
         MEXIT
.A1      AIF   ('&EDWD'(1,1) EQ '''').A2
.A15     MNOTE 4,'EDIT FORMAT NOT WITHIN QUOTES'
         MEXIT
.A2      AIF   ('&EDWD'(K'&EDWD,1) NE '''').A15
.*
&CNT1    SETA  2         START POSITION IN &EDWD
&CNT2    SETA  1         START POSITION IN &M
         AIF   ('&EDWD'(2,1) EQ '*').A6
&M(1) SETC  '40'    FILL CHAR IS BLANK
&CNT2    SETA  &CNT2+1
.*
.A6      ANOP
         AIF   ('&EDWD'(&CNT1,1) EQ '''').D1
         AIF   ('&EDWD'(&CNT1,1) EQ 'X').A8
         AIF   ('&EDWD'(&CNT1,1) EQ '0').A81
         AIF   ('&EDWD'(&CNT1,1) EQ ',').A9
         AIF   ('&EDWD'(&CNT1,1) EQ ':').B1
         AIF   ('&EDWD'(&CNT1,1) EQ '.').B2
         AIF   ('&EDWD'(&CNT1,1) EQ ' ').B3
         AIF   ('&EDWD'(&CNT1,1) EQ 'C').B4
         AIF   ('&EDWD'(&CNT1,1) EQ 'R').B5
         AIF   ('&EDWD'(&CNT1,1) EQ '-').B6
         AIF   ('&EDWD'(&CNT1,1) EQ '$').B7
         AIF   ('&EDWD'(&CNT1,1) EQ '*').B8
         AIF   ('&EDWD'(&CNT1,1) EQ '/').B9
&EDCH    SETC  '&EDWD'(&CNT1,1)
         MNOTE 4,'IMPROPER EDIT CHARACTER - &EDCH'
         MEXIT
.*
.A8      AIF   ('&EDWD'(&CNT1+1,1) EQ 'X').A89   IS NEXT A 'X' ?
         AIF   ('&EDWD'(&CNT1+1,1) EQ '0').A88    OR A '0' ?
         AIF   ('&EDWD'(&CNT1+1,1) EQ '$').A88     OR A '$'    ?
         AIF   ('&EDWD'(&CNT1+1,1) EQ '''').A89      OR THE END ?
         AIF   ('&EDWD'(&CNT1+2,1) EQ '0').A88     IF NOT TEST NEXT
         AGO   .A89                              ELSE USE DS
.A81     AIF   (&CNT1 EQ 2).A88        '0' IN FIRST POSITION
         AGO   .A89                    ELSE USE DIGIT SELECT
.A88     ANOP
&M(&CNT2)   SETC  '21'  START SIGNIFICANCE
         AGO   .C9
.A89      ANOP
&M(&CNT2)   SETC  '20'  DIGIT SELECT
         AGO   .C9
.A9      ANOP
&M(&CNT2)   SETC  '6B'  COMMA
         AGO   .C9
.B1      ANOP
&M(&CNT2)   SETC  '7A'  COLON
         AGO   .C9
.B2      ANOP
&M(&CNT2)   SETC  '4B'  PERIOD
         AGO   .C9
.B3      ANOP
&M(&CNT2)   SETC  '40'  BLANK
         AGO   .C9
.B4      ANOP
&M(&CNT2)   SETC  'C3'  C
         AGO   .C9
.B5      ANOP
&M(&CNT2)   SETC  'D9'  R
         AGO   .C9
.B6      ANOP
&M(&CNT2)   SETC  '60'  -
         AGO   .C9
.B7      ANOP
&EDMK    SETB  1        $ - SET ON EDMK OPTION
&D       SETA  &CNT2-1  SET DISP OF SIGNIF SELECT
&SD      SETC  '&D'
         AGO   .A81      AND TREAT AS IF '0'
.B8      ANOP
&M(&CNT2)   SETC  '5C'  *
         AGO   .C9
.B9      ANOP
&M(&CNT2)   SETC  '61'  /
.*
.C9      ANOP
&CNT1    SETA  &CNT1+1
&CNT2    SETA  &CNT2+1
         AIF   (&CNT2 LE 24).A6
         MNOTE 4,'EDIT WORD TOO LARGE TO HANDLE'
.*
.D1      ANOP
&CNT2    SETA  &CNT2-1
&LTH     SETC  ''
         AIF   ('&TO'(K'&TO,1) EQ ')').E2
&LTH     SETC  '('.'&CNT2'.')'
.E2      ANOP
&NAME    MVC   &TO&LTH,=X'&M(1)&M(2)&M(3)&M(4)&M(5)&M(6)&M(7)&M(8)&M(9)X
               &M(10)&M(11)&M(12)&M(13)&M(14)&M(15)&M(16)&M(17)&M(18)&MX
               (19)&M(20)&M(21)&M(22)&M(23)&M(24)'
         AIF   (&EDMK).F1
         ED    &TO&LTH,&FROM
         AGO   .E4
.F1      LA    1,&TO+&SD
         EDMK  &TO&LTH,&FROM
         BCTR  1,0
         MVI   0(1),C'$'
.E4      ANOP
         MEND
