         MACRO
&NAME    TIC   &ADDR
         LCLC  &A
         AIF   (T'&ADDR NE 'O').A
&A       SETC  '*-8'
         AGO   .B
.A       ANOP
&A       SETC  '&ADDR'
.B       ANOP
&NAME    CCW   8,&A,0,0
         MEND
