         MACRO
&NAME    SYSIN &EODAD=EOFIN
&NAME    DCB   DDNAME=SYSIN,DSORG=PS,MACRF=GM,RECFM=FB,LRECL=80,       X
               EODAD=&EODAD
         MEND
