         MACRO
&NAME    TIOT
&NAME    L     1,16                CVT ADDRESS
         L     1,0(0,1)            TCB WORDS ADDRESS
         L     1,4(0,1)            OUR TCB ADDRESS
         L     1,12(0,1)           TIOT ADDRESS
         MEND
