         MACRO
&NAME    $STACK &QCB,&DATA,&LEN=,&OP=ADD,&ENT=NEXT,&PB=
         LCLA  &A
         LCLB  &B(7)
         AIF   (T'&QCB EQ 'O').ERR1
         AIF   (T'&DATA EQ 'O' AND '&OP' NE 'FREE').ERR1
&NAME    IHBINNRA &QCB,&DATA
         NI    1(1),X'80'          RESET OP CODE
&B(1)    SETB  ('&OP' EQ 'ADD')
&B(2)    SETB  ('&OP' EQ 'DELETE')
&B(7)    SETB  ('&OP' EQ 'FREE')
&B(3)    SETB  ('&ENT' EQ 'PREV')
&B(4)    SETB  ('&ENT' EQ 'LAST')
&B(5)    SETB  ('&ENT' EQ 'FIRST')
&B(6)    SETB  ('&PB' EQ 'NO')
&A       SETA  &B(6)+8*&B(4)+16*&B(3)+24*&B(5)+32*&B(2)+64*&B(1)+2*&B(7)
               )
         OI    1(1),&A             SET OP CODE AND INDICATORS
         GOTO  SM34QUP
         MEXIT
.ERR1    MNOTE 8,'REQUIRED OPERAND(S) NOT SPECIFIED'
         MEND
