         MACRO
&NAME    PASS  &ENTRY,&PARLIST,&ID=,&TYPE=
.*       THIS VERSION OF PASS CAN GENERATE LINKS
.*
         COPY  HGLOBAL
         GBLB  &JPFLAG(2)
         GBLA  &JPRGNO
         LCLB  &PRF(2)
         LCLC  &NM
.*
         ACTR  20
&NM      SETC  '&NAME'
         AIF   (&JPFLAG(1)).TON
&JPFLAG(1) SETB (1)
&JPFLAG(2) SETB ('&TYPE' EQ 'LINK')
         AIF   ((T'&ENTRY EQ 'O') AND (T'&PARLIST EQ 'O')).EXIT
.TON     AIF   (NOT &JPFLAG(2)).STAN
         AIF   (T'&TYPE EQ 'O').SL
         AIF   ('&TYPE' NE 'LINK').STAN
.SL      AIF   (T'&ENTRY EQ 'O').PASLIS
&PRF(1)  SETB  (1)
.STAN    AIF   ('&ENTRY'(1,1) EQ '(').REGPASS
         AIF   (&PRF(1)).LINK
         AIF   (T'&ENTRY EQ 'O').PARLIS
&NM      L     15,=V(&ENTRY)            LOAD ADDRESS OF ROUTINE
&NM      SETC  ''
         AGO   .PARLIS
.LINK    BASIC
&BASIC.$&JPRGNO DC A(*+8,0),CL8'&ENTRY'
&SYSECT  CSECT
&PRF(2)  SETB  (1)
&NM      L     15,=A(&BASIC.$&JPRGNO)   LOAD ADDRESS OF ROUTINE
&NM      SETC  ''
&JPRGNO  SETA  &JPRGNO+1
         AGO   .PARLIS
.REGPASS AIF   ('&ENTRY' EQ '(15)').PASLIS
&NM      LA    0&ENTRY
&NM      SETC  ''
.PASLIS  ANOP
.PARLIS  AIF   (T'&PARLIST EQ 'O').NOLIST
         AIF   ('&PARLIST'(1,1) NE '(').NOPAR
&NM      LA    1,=A&PARLIST             LOAD PARAM POINTER
         AGO   .NOLIST
.NOPAR   ANOP
&NM      LA    1,=A(&PARLIST)           LOAD PARAM POINTER
.NOLIST  AIF   (&PRF(2)).SLINK
&NM      BALR  14,15
&NM      SETC  ''
         AIF   (T'&ID EQ 'O').EXIT
         DC    X'4700',Y(&ID)
         MEXIT
.SLINK   SVC   6
.EXIT    MEND
