         MACRO
&NAME    LEAVE &RC,&PARA,&REG=(14,12)
         GBLA  &#SA,&#SP
         GBLB  &#RENT
         LCLA  &R
         AIF   ('&NAME' EQ '').GO
&NAME    DS    0H
.GO      AIF   (&#RENT).RTYPE
         AIF   (&#SA LT 8).RCCHK
         L     13,4(0,13)          LOAD HSA ADDRESS
.RCCHK   AIF   (T'&RC EQ 'O').RET
         AIF   ('&RC'(1,1) EQ '(').SPEC
&R       SETA  &RC
.RET     AIF   (T'&PARA EQ 'O').RET2
         RETURN &REG,&PARA,RC=&R
         MEXIT
.RET2    RETURN &REG,RC=&R
         MEXIT
.SPEC    AIF   ('&RC' EQ '(15)').SPEC2
         LR    15,&RC(1)           LOAD RETURN CODE REGISTER
.SPEC2   AIF   (T'&PARA EQ 'O').SPEC3
         RETURN &REG,&PARA,RC=(15)
         MEXIT
.SPEC3   RETURN &REG,RC=(15)
         MEXIT
.RTYPE   AIF   (&#SA EQ 0).RCCHK
         LR    1,13                SAVE AREA ADDRESS
         L     13,4(0,13)          LOAD HSA ADDRESS
         AIF   ('&RC' NE '(15)').NOST
         ST    15,16(,13)
.NOST    ANOP
*        FREEMAIN R,LV=&#SA,SP=&#SP,A=(1)
         FREEMAIN R,LV=&#SA,SP=&#SP,A=(1)
         AGO   .RCCHK
         MEND
