         MACRO
&NAME    SYSPUNCH
&NAME    DCB   DDNAME=SYSPUNCH,DSORG=PS,MACRF=PM,RECFM=FB,LRECL=80
         MEND
