         MACRO
&NAME    WTP   &MSG
&NAME    WTO   &MSG,ROUTCDE=11,DESC=7
         MEND
