         MACRO
&NAME    SYSPRINT
&NAME    DCB   DDNAME=SYSPRINT,DSORG=PS,MACRF=PM,RECFM=FBA,LRECL=133
         MEND
