         MACRO
&NAME    LTH   &R,&FLD
.*
.*       LOAD HALFWORD AND TEST REGISTER CONTENTS
.*
&NAME    LH    &R,&FLD È           LOAD HALFWORD INTO REGISTER
         LTR   &R,&R È             TEST REGISTER VALUE
         MEND
