         MACRO
&NAME    TSGINNRB &C,&P,&D,&MF=I   SET UP PARAMETER LIST.
         LCLC  &N
         LCLA  &A
&N       SETC  '&NAME'
.C3      AIF   (&A GE N'&C).END
&A       SETA  &A+1
         AIF   ('&P(&A)' EQ '').C1
         AIF   ('&P(&A)'(1,1) EQ '(').C2
         AIF   ('&P(&A)'(K'&P(&A),1) EQ ')').C2
&N       TSGINNRD &C(&A),&P(&A)
.C5      ANOP
&N       SETC  ''
         AGO   .C3
.C1      AIF   ('&D(&A)' EQ '').C4
&N       TSGINNRD &C(&A),&D(&A)
         AGO   .C5
.C2      AIF   ('&MF' EQ 'I').C4
         MNOTE 12,'***  IHB006  INVALID REGISTER NOTATION W/MF=L'
.C4      ANOP
&N       TSGINNRD &C(&A),0
         AGO   .C5
.END     MEND
