         MACRO
&NAME    FINDUCB &DEV=,&DEVADDR=,&TO=,&VALID=NO
.* PARAMETERS FOR THIS MACRO ARE...
.*       DEV=  A 3 CHARACTER UNIT NAME - THIS IS AN ALTERNATIVE TO
.*             USING DEVADDR=.....
.*       DEVADDR=  THE ADDRESS OF A 3 CHARACTER UNIT NAME
.*             (NOTE THAT IF REGISTER NOTATION IS USED IT IS NECESSARY
.*             TO GIVE BASE AND DISPLACEMENT E.G. DEVADDR=0(5)  )
.*             A NORMAL  EXAMPLE WOULD BE DEVADDR=UNIT WHERE THE
.*             FIELD LABELLED 'UNIT' CONTAINS E.G. C'134'
.*       TO=  SPECIFY A REGISTER OR A FULLWORD IN WHICH THE UCB
.*             ADDRESS WILL BE RETURNED TO YOU IF THE UCB IS FOUND.
.*       VALID=YES  THIS SPECIFIES THAT THE 3 CHARACTER UNIT NAME AT
.*             UCB + 13 WILL BE COMPARED WITH THE UNIT NAME GIVEN.
.*
.*             IF VALID IS USED YOU MAY FOLLOW THE MACRO BY A BRANCH
.*             INSTRUCTION OF YOUR OWN WHICH WILL BE DEPENDENT ON THE
.*             RESULT OF THE CLC BETWEEN THE UNIT NAMES (E.G. YOU COULD
.*             FOLLOW THE MACRO BY 'BNE NOUCB')
.*
.*
         LCLB  &B
          LCLC &GNAME,&C,&D        CHARACTER VARIABLES.
         AIF   ('&DEV&DEVADDR' EQ '').E1
&B       SETB  ('&DEV' NE '')
         AIF   (&B AND '&DEVADDR' NE '').E2
&NAME    IHBINNRA &DEVADDR
&GNAME   SETC  'IHB'.'&SYSNDX'
         AIF   (&B).C1
          AIF  ('&DEVADDR'(1,1) NE '(').C19
&D        SETC '0'                 SET D FOR REGISTER SPECIFICATION.
.C19      ANOP
         LA    0,3(0,0)      SET COUNT FOR LOOP.
         IC    15,0(0,1)     SET GR15 = CHARACTER.
         CLI   0(1),X'F0'    IS CHARACTER NUMERIC ?
         BNL   *+8           IF SO THEN USE.
         LA    15,9(0,15)    INCREMENT FOR HEX.
         SLL   15,8          SHIFT FOR NEXT CHARACTER.
         LA    1,1(0,1)      INCREMENT GR1 FOR NEXT CHARAATER.
         BCT   0,*-24        LOOP UNTIL COUNT EXHAUSTED.
         N     15,&GNAME     CLEAR EXTRANEOUS BITS.
.C1      L     1,16(0,0)     SET GR1 -> CVT.
         L     0,40(0,1)     SET GR0 -> IECILK2
         L     1,36(0,1)     SET GR1 -> IECILK2.
         AIF   (&B).C4
         SR    14,14         SET GR14 = 0.
         SLDL  14,8          SET GR14 = CHANNEL.
         AGO   .C5
.C4      ANOP
&C       SETC  '&DEV'(1,1)
         LA    14,X'&C'      SET GR14 = CHANNEL NUMBER.
.C5      IC    14,0(1,14)    SET GR14 = CHANNEL CONSTANT.
         AR    1,14          SET GR1 FOR CONTROL UNIT ADD.
         AIF   (&B).C6
         SR    14,14         SET GR14 = 0.
         SLDL  14,8          SET GR14 = CONTROL UNIT NUMBER.
         AGO   .C7
.C6      ANOP
&C       SETC  '&DEV'(2,1)
         LA    14,X'&C'      SET GR14 = CONTROL UNIT NUMBER.
.C7      IC    14,0(1,14)    SET GR14 = OFFSET IN IECILK2 FOR CU.
         AR    14,14         SET GR14 = OFFSET IN IECILK2 FOR CU.
         AR    0,14          SET GR0 -> FIRST ENTRY FOR CU IN IECILK2.
         AIF   (&B).C8
         SR    14,14         SET GR14 = 0.
         SLDL  14,8          SET GR14 = UNIT NUMBER.
         AGO   .C9
.C8      ANOP
&C       SETC  '&DEV'(3,1)
         LA    14,X'&C'      SET GR14 = UNIT NUMBER.
.C9      AR    14,14         SET GR14 FOR ADD.
         AR    14,0          SET GR14 -> UCB POINTER IN IECILK2.
         AIF   ('&TO' EQ '').C10
         AIF   ('&TO'(1,1) EQ '(').C11
         LH    1,0(0,14)     SET GR1 -> UCB.
         ST    1,&TO         STORE ADDRESS IN USER FIELD.
         AGO   .C12
.C10     LH    1,0(0,14)     SET GR1 -> UCB.
         AGO   .C12
.C11     LH    &TO(1),0(0,14)   LOAD USER REG. WITH UCB ADDRESS.
.C12     AIF   (&B AND '&VALID' EQ 'NO').EXIT
         AIF   ('&VALID' EQ 'NO').C13
         SR    15,15         SET RETURN CODE OF ZERO.
         AIF   ('&TO' EQ '').C14
         AIF   ('&TO'(1,1) NE '(').C14
         AIF   ('&TO' EQ '(0)').C15
         AIF   (&B).C16
          CLC  13(3,&TO(1)),&D&DEVADDR  COMPARE UNIT NAME WITH SPEC'D.
         AGO   .C17
.C16     CLC   13(3,&TO(1)),&GNAME COMPARE UNIT NAME WITH SPEC'D.
         AGO   .C17
.C15     LR    1,0           SET GR1 -> UCB.
.C14     AIF   (&B).C18
          CLC  13(3,1),&D&DEVADDR       COMPARE UNIT NAME WITH SPEC'D.
         AGO   .C17
.C18     CLC   13(3,1),&GNAME        COMPARE UNIT NAME WITH SPEC'D.
.C17     BE    *+8           IF EQUAL THEN USE ZERO RETURN CODE.
         LA    15,4(0,0)     SET RETURN CODE OF 4.
         AIF   (NOT &B).C13
         B     *+8           BRANCH AROUND CONSTANT.
&GNAME   DC    CL4'&DEV'
         MEXIT
.C13     ANOP
         CNOP  0,4           FORCE ALIGNMENT.
         B     *+8           BRANCH AROUND CONSTANT.
&GNAME   DC    X'0F0F0F00'
.EXIT    MEXIT
.E1      MNOTE 12,'***  IHB004  REQUIRED OPERAND(S) NOT SPECIFIED'
         MEXIT
.E2      MNOTE 12,'***  IHB018  BOTH DEV AND DEVADDR OPERANDS SPECIFIED*
               .'
         MEND
