         MACRO
&NAME    SAVEPARM
***********************************************************************
*
*        THIS MACRO SAVE THE EXEC PARM INTO A NEW FIELDS (LENGTH 106)
*              TO PREVENT OC4 ABEND DURING PARM PROCESSING.
*
*        - IN ENTRY REG 1 MUST CONTAINS THE PARM POINTER ADDRESS.
*        - IN OUTPUT REG 1 CONTAIN THE NEW PARM POINTER ADDRESS.
*
***********************************************************************
         SPACE 1
         CNOP  0,4 ^               FULL WORD ALIGMENT
&NAME    L     1,0(0,1) ^          LOAD ADDRRESS OF PARM AREA
         ST    2,*+8 ^             SAVE REGISTER 2
         B     *+8 ^               SKIP NEXT DS
         DS    F ^                 FULL WORD FOR REGISTER 2
         LH    2,0(0,1) ^          LOAD LENGTH OF PARM
         LA    2,1(0,2) ^          ADD ONE TO PARM LENGTH FOR EX
         EX    2,*+8 ^             EXECUT SAVE PARM MOVE
         B     *+120 ^             BYPASS FORWARD CHAINING
         MVC   *+6(0),0(1) ^       EXECUTE SAVE PARM MOVE INSTRUC.
         DS    CL106 ^             NEW PARM AREA
         DC    A(*-106) ^          NEW PARM POINTER ADDRESS
         LA    1,*-4 ^             LOAD NEW PARM POINTER ADDR IN REG 1
         L     2,*-140 ^           RESTORE REGISTER 2
         MEND
