         MACRO
&NAME    PRINCORE   &FROM,&TO,&DCB,&RES=0
.*     *     *     *    *    *    *    *    *    *    *    *    *     *
.*
.* THIS MACRO IS USED TO PRINT OUT AREAS OF CORE TO A SPECIFIED FILE.
.* IT IS INTENDED ESPECIALLY TO PRINT AREAS NOT WITHIN THE USER'SOWN
.* CORE.  THE USER MUST GIVE THE START AND END ADDRESSES OF THE AREA,
.* AND INDICATE THE DCB TO BE USED. IF HE SUPPLIES HIS OWN DCB IT MUST
.* HAVE THE CHARACTERISTICS RECFM=FM (OR FBM) WITH LRECL=133, AND IT
.* MUST BE ALREADY OPEN.
.* THE MACRO ASSUMES BY DEFAULT THAT NO PAGING IS REQUIRED.  IF &RES IS
.* GIVEN A NON-ZERO VALUE 'N' THEN N-1 LINES WILL BE PRINTED ON THE
.* CURRENT PAGE, FOLLOWED BY A THROW TO A NEW PAGE ON WHICH 56 LINES
.* WILL BE PRINTED.  THIS ALLOWS THE USER TO START HIS OUTPUT ON A NEW
.* PAGE (BY RES=1) OR TO POSITION HIMSELF ANYWHERE ON A PAGE AND TELL
.* PRINCORE TO FINISH THE PAGE CORRECTLY BY GIVING IT A RESIDUAL COUNT
.* OF NOT MORE THAN 56.
.*  DEFAULT PARAMS           FROM ADD IN REG 1
.*                 TO ADD IN REG 0
.*                 DCB NAME CORPRINT (DDNAME CORPRINT)
.*                 RESIDUAL LINE COUNT = 0
.*
.*     *     *     *    *    *    *    *    *    *    *    *    *     *
         GBLB  &GDECLN,&GDCB
         LCLC  &GNAME
&GNAME   SETC  'IHB'.'&SYSNDX'
&NAME    STM   14,12,12(13)
         AIF   ('&FROM' EQ '').C1            BLANK _SO IN REG 1
         AIF   ('&FROM'(1,1) NE '(').C2      NOT REG. _IGNORE HERE
         ST    &FROM(1),&GNAME.A+0
         AGO   .C2
.C1      ST    1,&GNAME.A+0
.C2      AIF   ('&TO' EQ '').C3              BLANK _SO IN REG 0
         AIF   ('&TO'(1,1) NE '(').C4        NOT REGISTER  _IGNORE HERE
         ST    &TO(1),&GNAME.A+4
         AGO   .C4
.C3      ST    0,&GNAME.A+4
.C4      CNOP  0,4
         BAL   14,*+16
.*
.* SET UP &GNAME.A
         AIF   ('&FROM' EQ '').B1
         AIF   ('&FROM'(1,1) EQ '(').B1
&GNAME.A DC    A(&FROM)                 NON-REG. FROM-ADDR (EG X'1234')
         AGO   .B2
.B1      ANOP
&GNAME.A DC    A(0)                     REGISTER FROM-ADDR
.B2      AIF   ('&TO' EQ '').B3
         AIF   ('&TO'(1,1) EQ '(').B3
         DC    A(&TO)                   NON-REG. TO_ADDR
         AGO   .B4
.B3      DC    A(0)                     REGISTER TO_ADDR
.B4      DC    V($PRINCOR)              CSECT
         LM    1,3,0(14)
         ST    1,$FROM-$PRINCOR(3)
.* SET UP REG& WITH ADDRESS OF DCB REQUIRED (SUPPLIED OR DEFAULT)
         AIF   ('&DCB' EQ '').A1
         AIF   ('&DCB'(1,1) EQ '(').A2
         LA    8,&DCB
         AGO   .A3
.A2      LR    8,&DCB(1)
         AGO   .A3
.A1      OPEN  (CORPRINT,(OUTPUT))
         LA    8,CORPRINT-$PRINCOR(3)
.* SET UP LINE COUNTING IF REQUIRED
.A3      AIF   ('&RES'(1,1) NE '(').A4
         ST    &RES,$LINECT-$PRINCOR(3)
         AGO   .A5
.A4      LA    0,&RES
         ST    0,$LINECT-$PRINCOR(3)
.A5      ANOP
.* BRANCH TO $PRINCOR CSECT
         BAL   10,$PRINCO1-$PRINCOR(3)
         LM    14,12,12(13)
         AIF   (&GDECLN AND &GDCB).EXIT
         AIF   (&GDECLN AND '&DCB' NE '').EXIT
$PRINCOR CSECT
         AIF   (&GDECLN).C41            NOT FIRST USE MACRO
&GDECLN  SETB  1
*DECLARATIONS                                                         *
$MTCB    MVC   0(1,5),$SPACES-$PRINCOR(3)    EXECUTED INSTRUCTIONS
$MTC     MVC   $CHARS-$PRINCOR(1,3),$SPACES-$PRINCOR(3)
$SPACES  DC    CL40' '                       CONSTANT
$ADDR    DC    F'0'                          ADDRESS FIELD
$LINECT  DC    A(0)          LINE COUNT
$CHARTAB DC    256C' '
         ORG   $CHARTAB+C'A'
         DC    C'ABCDEFGHI'
         ORG   $CHARTAB+C'J'
         DC    C'JKLMNOPQR'
         ORG   $CHARTAB+C'S'
         DC    C'STUVWXYZ'                   TRANSLATE TABLE
         ORG   $CHARTAB+C'0'
         DC    C'0123456789'
         ORG
$THREE   DC    X'1B'
$SKIP    DC    X'8B'         PAGE THROW ON PRINT
$LINE    DC    X'09'                         OUTPUT LINE (133 CHARS)
$HEXAD   DC    CL6' '                        ADDR
         DC    CL4' '
$FLDA    DC    CL35' '
         DC    CL4' '
$FLDB    DC    CL35' '
         DC    CL4' '
$CHARS   DC    CL32' '                       CHAR REPRESENTN. OF HEX
         DC    CL18' '
$SAVE    DC    18F'0'                        SAVE AREA
$FROM    DC    F'0'
* MAIN HANDLING OF EACH LINE (32 CHARS) DONE HERE                     *
*       FOR CORE SPECIFIED:  HEXPRINT IS USED TO DO CONVERSIONS OF THE*
*       DATA,WHICH IS THEN OUTPUT TO THE APPROPRIATE FILE (SUPPLIED   *
*       BY USER,OR DEFAULT IS CORPRINT                                *
$PRINCO1 ST    13,$SAVE+4-$PRINCOR(3)
         LA    15,$SAVE-$PRINCOR(3)
         ST    15,8(13)
         LA    13,$SAVE-$PRINCOR(3)
         L     1,$FROM-$PRINCOR(3)
         CR    2,1
         BNL   $ROUND-$PRINCOR(3)
         LR    2,1
$ROUND   LA    9,31
         LR    4,9
         NR    9,1
         NR    4,2
         SRL   1,5
         SLL   1,5
         ST    1,$FROM-$PRINCOR(3)
&GNAME.C L     1,$FROM-$PRINCOR(3)
         ST    1,$ADDR-$PRINCOR(3)
*        HEXPRINT  $ADDR+1,$HEXAD,3         DUMMY STMT
         CNOP  0,4
         BAL   1,*+36-$PRINCOR(3)
         DC    A($HEXAD)
         DC    A($ADDR+1)
         DC    H'3'
         DC    AL1(0)
         DC    AL1(0)
         DC    CL16'0123456789ABCDEF',V(TSGHEXPT)
         L     15,28(1,0)
         BALR  14,15
TSGHEXPT CSECT
         STM   0,7,20(13)
         LM    4,5,0(1)
         LH    0,8(1,0)
         SR    3,3
         SR    6,6
         SR    7,7
         IC    6,10(1,0)
         IC    7,11(1,0)
         IC    3,0(5,0)
         SLDL  2,28
         SRL   3,28
         IC    2,12(1,2)
         IC    3,12(1,3)
         STC   2,0(4,0)
         STC   3,1(4,0)
         LA    4,2(4,0)
         LA    5,1(5,0)
         BCT   6,72(15,0)
         AR    4,7
         IC    6,10(1,0)
         BCT   0,26(15,0)
         LM    0,7,20(13)
         BR    14  RETURN
$PRINCOR CSECT
         L     5,$FROM-$PRINCOR(3)
*        HEXPRINT  (5),$FLDA,16,(4,1)
         CNOP  0,4
         BAL   1,*+36-$PRINCOR(3)
         DC    A($FLDA)
         DC    A(0)
         DC    H'16'
         DC    AL1(4)
         DC    AL1(1)
         DC    CL16'0123456789ABCDEF',V(TSGHEXPT)
         ST    5,4(1,0)
         L     15,28(1,0)
         BALR  14,15
         LA    5,16(5)
*        HEXPRINT  (5),$FLDB,16,(4,1)       DUMMY STMT
         CNOP  0,4
         BAL   1,*+36-$PRINCOR(3)
         DC    A($FLDB)
         DC    A(0)
         DC    H'16'
         DC    AL1(4)
         DC    AL1(1)
         DC    CL16'0123456789ABCDEF',V(TSGHEXPT)
         ST    5,4(1,0)
         L     15,28(1,0)
         BALR  14,15
         L     1,$FROM-$PRINCOR(3)
         MVC   $CHARS-$PRINCOR(32,3),0(1)
         TR    $CHARS-$PRINCOR(L'$CHARS,3),$CHARTAB-$PRINCOR(3)
         LTR   9,9
         BZ    &GNAME.E-$PRINCOR(3)
         LR    5,9
         BCTR  5,0
         EX    5,$MTC-$PRINCOR(3)       MVC  $CHARS(1),$SPACES
         LA    5,$FLDA-$PRINCOR(3)
         LA    6,4
         LA    7,4
&GNAME.D MVC   0(2,5),$SPACES-$PRINCOR(3)
         BCT   9,*+8-$PRINCOR(3)
         B     &GNAME.E-$PRINCOR(3)
         LA    5,2(5)
         BCT   6,&GNAME.D-$PRINCOR(3)
         LA    6,4
         LA    5,1(5)
         BCT   7,&GNAME.D-$PRINCOR(3)
         LA    7,4
         LA    5,3(5)
         B     &GNAME.D-$PRINCOR(3)
&GNAME.E LA    1,32(1)
         ST    1,$FROM-$PRINCOR(3)
         SR    9,9
         CR    2,1
         BH    &GNAME.G-$PRINCOR(3)     PUT & THEN CONSIDERNEXT LINE
         BE    &GNAME.H-$PRINCOR(3)     END
         LR    9,1
         SR    9,2
         LA    4,32
         SR    4,9
         LA    5,$CHARS-$PRINCOR(4,3)
         LR    2,9
         BCTR  9,0
         EX    9,$MTCB-$PRINCOR(3)      MVC  0(1,5),$SPACES
         LA    5,$FLDB+33-$PRINCOR(3)
         LA    6,4
         LA    7,4
&GNAME.F MVC   0(2,5),$SPACES-$PRINCOR(3)
         BCT   2,*+8-$PRINCOR(3)
         B     &GNAME.H-$PRINCOR(3)     PUT & THEN END
         BCTR  5,0
         BCTR  5,0
         BCT   6,&GNAME.F-$PRINCOR(3)
         LA    6,4
         BCTR  5,0
         BCT   7,&GNAME.F-$PRINCOR(3)
         LA    7,4
         LA    1,3
         SR    5,1
         B     &GNAME.F-$PRINCOR(3)
&GNAME.G BAL   11,$PUTSVB-$PRINCOR(3)
         B     &GNAME.C-$PRINCOR(3)     CONVERT NEXT LINE
&GNAME.H BAL   11,$PUTSVB-$PRINCOR(3)
&GNAME.J LA    12,$THREE-$PRINCOR(3)
         BAL   11,$PUTSVB+4-$PRINCOR(3)
         L     13,$SAVE+4-$PRINCOR(3)
         BR    10
         SPACE
$PUTSVB  LA    12,$LINE-$PRINCOR(3)
         L     1,$LINECT-$PRINCOR(3)
         BCT   1,$PUTSVBA-$PRINCOR(3)
         PUT   (8),$SKIP-$PRINCOR(3)
         LA    1,56
$PUTSVBA  ST   1,$LINECT-$PRINCOR(3)
         PUT   (8),(12)
         BR    11
.C41     AIF   ('&DCB' NE '').CSECT
         AIF   (&GDCB).CSECT
&GDCB    SETB  1
CORPRINT DCB   DSORG=PS,                                               *
               DDNAME=CORPRINT,                                        *
               MACRF=(PM),                                             *
               RECFM=FBM,                                              *
               LRECL=133,                                              *
               BLKSIZE=1463
.CSECT   ANOP
&SYSECT  CSECT
.EXIT    MEND
