         MACRO
&NAME    TSGINNRC &L,&S,&P,&GR=1,&MF=I  STORE PARAMETER VALUES.
         LCLA  &A1,&A2
         LCLB  &B1,&B2,&B3,&B4
         LCLC  &C1
.C3      AIF   (&A1 GE N'&P).END
&A1      SETA  &A1+1
         AIF   ('&P(&A1)' EQ '').C5
         AIF   ('&P(&A1)'(1,1) EQ '(').C2
         AIF   ('&MF' EQ 'I').C1
.C4      L&L(&A1)   0,&P(&A1)      LOAD PARAMETER VALUE.
         ST&S(&A1)   0,&A2.(&GR,0) STORE PARAMETER VALUE.
         AGO   .C5
.C2      ANOP
&C1      SETC  '&P(&A1)'(2,K'&P(&A1)-2)
         ST&S(&A1)   &C1,&A2.(&GR,0) STORE PARAMETER VALUE.
         AGO   .C5
.C1      AIF   ('&P(&A1)'(K'&P(&A1),1) EQ ')').C4
.C5      ANOP
&C1      SETC  '&S(&A1)'
&B1      SETB  ('&C1' EQ 'C')
&B2      SETB  ('&C1' EQ 'H')
&B3      SETB  ('&C1' EQ 'E' OR '&C1' EQ '')
&B4      SETB  ('&C1' EQ 'D')
&A2      SETA  &A2+&B1+2*&B2+4*&B3+8*&B4
         AGO   .C3
.END     MEND
