         MACRO
&NAME    TSGINNRD   &C,&P
         LCLC  &T
&T       SETC  '&C'(1,1)
         AIF ('&T'EQ'A'OR'&T'EQ'Q'OR'&T'EQ'V'OR'&T'EQ'S'OR'&T'EQ'Y').C1
&NAME    DC    &C'&P'
         MEXIT
.C1      ANOP
&NAME    DC    &C.(&P)
.END     MEND
