         MACRO
&NAME    DLINE &HEX,&CHAR
         LCLC  &GNAME
         AIF   ('&CHAR' EQ '').C1
&GNAME   SETC  'IHB'.'&SYSNDX'
&NAME    DC    0H'0',AL2(&GNAME-*,0),X'&HEX',C&CHAR
&GNAME   DS    0C
         MEXIT
.C1      ANOP
&NAME    DC    H'5,0',X'&HEX'
         MEND
