         MACRO
&NAME    TSGSNAP &TCB=0,&SDATA=,&PDATA=,&STORAGE=,&LIST=,&ID=,&MF=I
.*  THE TSGSNAP MACRO PROVIDES THE USER WITH THE NORMAL FACILITIES OF
.*  THE SNAP MACRO WITHOUT HAVING TO SET UP AND OPEN AN APPROPRIATE DCB
.*  TSGSNAP CRATES AND OPENS ITS OWN DCB AND ALL THE USER HAS TO DO IS
.*  TO PROVIDE A //SNAPOUT DD CARD ( E.G. //SNAPOUT DD SYSOUT=A)
.*  IN SOME CIRCUMSTANCES THE PROGRAM MUST CLOSE THE TSGSNAPA DCB IF IT
.*  IS NOT TO LOSE THE SYSPRINT (E.G. IF THE PROGRAM CORRUPTS THE DEB
.*  CHAIN AND THEN ABENDS LEAVING THE DCB UNCLOSED AND THE TIOT ENTRY
.*  LOOKING AS IF IT IS A NULL SYSOUT DATA SET.
         GBLB  &GSNAPSW
         LCLA  &A1,&A2
         LCLB  &B1,&B2,&B3,&B4,&B5,&B6,&B7,&B8,&B9,&BA,&BB,&BC,&BD,&BE
         LCLC  &GNAME,&C1
&GNAME   SETC  'IHB'.'&SYSNDX'
.C2      AIF   (&A1 GE N'&SDATA).C1
&A1      SETA  &A1+1
&C1      SETC  '&SDATA(&A1)'
&B2      SETB  (&B2 OR '&C1' EQ 'ALL' OR '&C1' EQ 'CB')
&B3      SETB  (&B3 OR '&C1' EQ 'ALL' OR '&C1' EQ 'TRT')
&B4      SETB  (&B4 OR '&C1' EQ 'ALL' OR '&C1' EQ 'NUC')
&B7      SETB  (&B7 OR '&C1' EQ 'ALL' OR '&C1' EQ 'Q')
         AGO   .C2
.C1      AIF   ('&LIST' NE '' AND '&STORAGE' NE '').E1
&B5      SETB  ('&STORAGE' NE '')
&A1      SETA  2*(N'&STORAGE/2)
         AIF   (&A1 NE N'&STORAGE OR N'&LIST GT 1).E1
&B1      SETB  ('&TCB' NE '0' AND '&TCB' NE '''S''')
&B6      SETB  ('&ID' NE '')
&A1      SETA  128+64*&B1+32*&B2+16*&B3+8*&B4+4*&B5+2*&B6+&B7
.C4      AIF   (&A2 GE N'&PDATA).C3
&A2      SETA  &A2+1
&C1      SETC  '&PDATA(&A2)'
&B8      SETB  (&B8 OR'&C1'EQ'ALL'OR'&C1'EQ'SAH'OR'&C1'EQ'SA')
&B9      SETB  (&B9 OR'&C1'EQ'SAH')
&BA      SETB  (&BA OR'&C1'EQ'ALL'OR'&C1'EQ'REGS')
&BB      SETB  (&BB OR'&C1'EQ'ALL'OR'&C1'EQ'ALLPA'OR'&C1'EQ'LPA')
&BC      SETB  (&BC OR'&C1'EQ'ALL'OR'&C1'EQ'ALLPA'OR'&C1'EQ'JPA')
&BD      SETB  (&BD OR'&C1'EQ'ALL'OR'&C1'EQ'PSW')
&BE      SETB  (&BE OR'&C1'EQ'ALL'OR'&C1'EQ'SPLS')
         AGO   .C4
.C3      ANOP
&A2      SETA  128*&B8+64*&B9+32*&BA+16*&BB+8*&BC+4*&BD+2*&BE
         AIF   ('&MF'EQ 'L').LROUT
         AIF   ('&MF(1)' EQ 'E' AND N'&MF EQ 2).EROUT
         AIF   ('&MF' NE 'I').E2
         CNOP  0,4
&NAME    STM   14,1,28(13)         SAVE REGISTERS.
         BAL   1,&GNAME            BRANCH AROUND DATA.
.C15     AIF   ('&ID' EQ '').C5
         AIF   ('&ID'(1,1) EQ '(').C5
         DC    AL1(&ID)            ID NUMBER.
         AGO   .C6
.C5      DC    AL1(0)              ID NUMBER.
.C6      DC    AL1(0)
         DC    AL1(&A1,&A2)        OPTION FLAGS.
         DC    A(TSGSNAPA)         DCB ADDRESS.
         DC    A(0)                TCB ADDRESS.
         AIF   ('&LIST' EQ '').C7
         AIF   ('&LIST'(1,1) EQ '(').C8
         DC    A(&LIST)            ADDRESS OF SNAPSHOT LIST.
         AGO   .C9
.C8      DC    A(0)                ADDRESS OF SNAPSHOT LIST.
         AGO   .C9
.C7      AIF   ('&STORAGE' EQ '').C8
         DC    A(*+4)              ADDRESS OF SNAPSHOT LIST.
&A1      SETA  0
.C11     AIF   (&A1 GE N'&STORAGE).C12
&A1      SETA  &A1+1
         AIF   ('&STORAGE(&A1)' EQ '').C10
         AIF   ('&STORAGE(&A1)'(1,1) EQ '(').C10
         DC    A(&STORAGE(&A1))    STARTING/ENDING ADDRESS.
         AGO   .C11
.C10     DC    A(0)                STARTING/ENDING ADDRESS.
         AGO   .C11
.C12     ORG   *-4
         DC    X'80'
         ORG   *+3
.C9      AIF   ('&MF' EQ 'L').C13
&GNAME   DS    0H
         AGO   .C14
.LROUT   ANOP
&NAME    DS    0A
         AGO   .C15
.EROUT   ANOP
&NAME    STM   14,1,28(13)         SAVE REGISTERS.
         IHBINNRA &MF(2)
         AIF   (&A1 EQ 128).C16
         MVI   2(1),&A1            SET OPTION FLAGS.
.C16     AIF   ('&TCB' EQ '''S''').C17
         NI    2(1),X'BF'          SPECIFY CURRENT TCB.
.C17     AIF   (&A2 EQ 0).C14
         MVI   3(1),&A2            SET OPTION FLAGS.
.C14     AIF   (NOT &B1).C19
         AIF   ('&TCB'(1,1) EQ '(').C20
         L     0,&TCB              GET TCB ADDRESS.
         ST    0,8(0,1)            STORE INTO PARAMETER LIST.
         AGO   .C19
.C20     ST    &TCB(1),8(0,1)      STORE TCB ADDRESS.
.C19     AIF   ('&ID' EQ '').C21
         AIF   ('&ID'(1,1) EQ '(').C22
         AIF   ('&MF' EQ 'I').C21
         MVI   0(1),&ID            STORE ID NUMBER.
         AGO   .C21
.C22     STC   &ID(1),0(0,1)       STORE ID NUMBER.
.C21     AIF   (NOT &B5).C23
&A1      SETA  0
         AIF   ('&MF' EQ 'I').C24
         LA    0,16(0,1)           GET ADDRESS OF SNAPSHOT LIST.
         ST    0,12(0,1)           STORE IN PARAMETER LIST.
.C24     AIF   (&A1 GE N'&STORAGE).C25
&A1      SETA  &A1+1
&A2      SETA  12+4*&A1
         AIF   ('&STORAGE(&A1)' EQ '').C24
         AIF   ('&STORAGE(&A1)'(1,1) EQ '(').C26
         AIF   ('&MF' EQ 'I').C24
         LA    0,&STORAGE(&A1)     GET STARTING/ENDING ADDRESS.
         ST    0,&A2.(0,1)         STORE STARTING/ENDING ADDRESS.
         AGO   .C24
.C26     ST    &STORAGE(&A1),&A2.(0,1)   STORE STARTING/ENDING ADDRESS.
         AGO   .C24
.C25     AIF   ('&MF' EQ 'I' AND '&STORAGE(&A1)'(1,1) NE '(').C27
         MVI   &A2.(1),X'80'       SET END OF LIST INDICATOR.
         AGO   .C27
.C23     AIF   ('&LIST' EQ '').C27
         AIF   ('&LIST'(1,1) EQ '(').C28
         AIF   ('&MF' EQ 'I').C27
         LA    0,&LIST             GET ADDRESS OF SNAPSHOT LIST.
         ST    0,12(0,1)           STORE IN PARAMETER LIST.
         AGO   .C27
.C28     ST    &LIST(1),12(0,1)    STORE LIST ADDRESS IN PARM LIST.
.C27     CNOP  0,4
         B     *+8                 BRANCH ROUND BALR ADDRESS.
         DC    A(TSGSNAP)          ENTRY POINT ADDRESS.
         L     15,*-4              SET GR15 -> ENTRY ADDRESS.
         BALR  14,15               GO TO SNAP ROUTINE.
         LM    14,1,28(13)         RESTORE REGISTERS.
.C13     AIF   (&GSNAPSW).EXIT
TSGSNAP  CSECT
         STM   14,1,12(13)         SAVE REGISTERS.
         TM    TSGSNAPA+48-TSGSNAP(15),X'10' IS SNAPOUT OPEN ?
         BO    &GNAME.A-TSGSNAP(15) IF SO THEN GO TO SNAP.
         LA    1,&GNAME.B-TSGSNAP(15) SET GR1 -> L-FORM OPEN.
         SVC   19                  ISSUE OPEN SVC.
         L     1,24(0,13)          RESTORE GR1.
&GNAME.A SVC   51                  ISSUE SNAP SVC.
         L     14,12(0,13)         RESTORE GR14.
         BR    14                  RETURN.
&GNAME.B DC    0F'0',AL1(143),AL3(TSGSNAPA)
TSGSNAPA DC    4F'0',A(0,1),H'0',X'40',A(1,1),X'54',0A(0),CL8'SNAPOUT'
         DC    X'02000020',A(1,1,882,0,1,1),A(1,125,1)
&SYSECT  CSECT
&GSNAPSW SETB  1
.EXIT    MEXIT
.E1      IHBERMAC 189
         MEXIT
.E2      IHBERMAC 35,,&MF
         MEND
