         MACRO
&NAME    MCCW  &OPCD,&IOAREA,&DC=0,&CC=0,&SLI=0,                       X
               &SKIP=0,&PCI=0,&COUNT=
         LCLC  &CMND,&LNGTH,&BYTES
.*
.* CHECK  FOR CHANNEL COMMANDS
.*
.*
         AIF   (T'&OPCD NE 'N').D001
&CMND    SETC  '&OPCD'           SELF DEFINING TERNS
         AGO   .ENDOP
.* DEVICE INDEPENDENT COMMANDS
.*
.D001    AIF   ('&OPCD' NE 'TIC').D002
&CMND    SETC  'X''08'''
         AGO   .ENDOP
.D002    AIF   ('&OPCD' NE 'NOP').C001
&CMND    SETC  'X''03'''
         AGO   .ENDOP
.*
.*       1403 PRINTER COMMANDS
.*
.C001    AIF   ('&OPCD' NE 'PRNTSP1').C002
&CMND    SETC  'X''09'''
         AGO   .ENDOP
.C002    AIF   ('&OPCD' NE 'PRNTSP2').C003
&CMND    SETC  'X''11'''
         AGO   .ENDOP
.C003    AIF   ('&OPCD' NE 'PRNTSK1').C004
&CMND    SETC  'X''89'''                    10001001    ?'89'
         AGO   .ENDOP
.C004    AIF   ('&OPCD' NE 'SPACE1').C005
&CMND    SETC  'X''0B'''                    X'0B'
         AGO   .ENDOP
.C005    AIF   ('&OPCD' NE 'SKIP1').F001
&CMND    SETC  'X''8B'''                    10001011   X'8B'
         AGO   .ENDOP
.*
.* CARD READER COMMANDS
.*
.F001    AIF   ('&OPCD' NE 'READCD').F002
&CMND    SETC  'X''02'''                    X'02'
         AGO   .ENDOP
.F002    AIF   ('&OPCD' NE 'PCH').G001
&CMND    SETC  'X''01'''                    X'01'
         AGO   .ENDOP
.*
.* 1052 CONSOLE PRINTER COMMANDS
.*
.G001    AIF   ('&OPCD' NE 'TYPE').G002
&CMND    SETC  'X''09'''                    X'09'
         AGO   .ENDOP
.G002    AIF   ('&OPCD' NE 'ACCEPT').H001
&CMND    SETC  'X''0A'''                    X'0A'
         AGO   .ENDOP
.*
.* MAGNETIC TAPE COMMANDS
.*
.H001    AIF   ('&OPCD' NE 'READTP').H002
&CMND    SETC  'X''02'''
         AGO   .ENDOP
.H002    AIF   ('&OPCD' NE 'REW').H003
&CMND    SETC  'X''07'''
         AGO   .ENDOP
.H003    AIF   ('&OPCD' NE 'RB').H004
&CMND    SETC  'X''0C'''
         AGO   .ENDOP
.H004    AIF   ('&OPCD' NE 'WT').H005
&CMND    SETC  'X''01'''
         AGO   .ENDOP
.H005    AIF   ('&OPCD' NE 'RUN').K001
&CMND    SETC  'X''0F'''           X'0F'
         AGO   .ENDOP
.*
.* 1418/1428 OPTICAL READER COMMANDS
.*
.K001    AIF   ('&OPCD' NE 'RF').K002
&CMND    SETC  'X''02'''                         X'02'
         AGO   .ENDOP
.K002    AIF   ('&OPCD' NE 'SSA18').K003
&CMND    SETC  'X''AF'''                         X'AF'
         AGO   .ENDOP
.K003    AIF   ('&OPCD' NE 'SSB18').K004
&CMND    SETC  'X''BF'''                         X'BF'
         AGO   .ENDOP
.K004    AIF   ('&OPCD' NE 'SSA28').K005
&CMND    SETC  'X''A7'''                         X'A7'
         AGO   .ENDOP
.K005    AIF   ('&OPCD' NE 'SSB28').K006
&CMND    SETC  'X''B7'''                         X'B7'
         AGO   .ENDOP
.K006    AIF   ('&OPCD' NE 'SSR28').K007
&CMND    SETC  'X''C7'''                         X'C7'
         AGO   .ENDOP
.K007    AIF   ('&OPCD' NE 'SANF').K008
&CMND    SETC  'X''3F'''                         X'3F'
         AGO   .ENDOP
.K008    AIF   ('&OPCD' NE 'SNF').K009
&CMND    SETC  'X''4F'''                         X'4F'
         AGO   .ENDOP
.K009    AIF   ('&OPCD' NE 'HSS1').K010
&CMND    SETC  'X''CF'''                         X'CF'
         AGO   .ENDOP
.K010    AIF   ('&OPCD' NE 'HSS2').K011
&CMND    SETC  'X''FF'''                         X'FF'
         AGO   .ENDOP
.K011    AIF   ('&OPCD' NE 'ENG').K012
&CMND    SETC  'X''EF'''                         X'EF'
         AGO   .ENDOP
.K012    AIF   ('&OPCD' NE 'DENG').L001
&CMND    SETC  'X''DF'''                         X'DF'
         AGO   .ENDOP
.*
.* 1287 OPTICAL READER COMMANDS
.*
.L001    AIF   ('&OPCD' NE 'RBT').L002
&CMND    SETC  'X''1C'''                         X'1C'
         AGO   .ENDOP
.L002    AIF   ('&OPCD' NE 'RBC').L003
&CMND    SETC  'X''4C'''                         X'4C'
         AGO   .ENDOP
.L003    AIF   ('&OPCD' NE 'LF').L004
&CMND    SETC  'X''53'''                         X'53'
         AGO   .ENDOP
.L004    AIF   ('&OPCD' NE 'C').L005
&CMND    SETC  'X''5B'''                         X'5B'
         AGO   .ENDOP
.L005    AIF   ('&OPCD' NE 'EJ').L006
&CMND    SETC  'X''43'''                         X'43'
         AGO   .ENDOP
.L006    AIF   ('&OPCD' NE 'SSA').L007
&CMND    SETC  'X''23'''                         X'23'
         AGO   .ENDOP
.L007    AIF   ('&OPCD' NE 'SSB').L008
&CMND    SETC  'X''2B'''                         X'2B'
         AGO   .ENDOP
.L008    AIF   ('&OPCD' NE 'SSR').L009
&CMND    SETC  'X''33'''                         X'33'
         AGO   .ENDOP
.L009    AIF   ('&OPCD' NE 'SSALT').L010
&CMND    SETC  'X''3B'''                         X'3B'
         AGO   .ENDOP
.L010    AIF   ('&OPCD' NE 'EJSSA').L011
&CMND    SETC  'X''63'''                         X'63'
         AGO   .ENDOP
.L011    AIF   ('&OPCD' NE 'EJSSB').L012
&CMND    SETC  'X''6B'''                         X'6B'
         AGO   .ENDOP
.L012    AIF   ('&OPCD' NE 'EJSSR').L013
&CMND    SETC  'X''73'''                         X'73'
         AGO   .ENDOP
.L013    AIF   ('&OPCD' NE 'EJSSALT').L014
&CMND    SETC  'X''7B'''                         X'7B'
         AGO   .ENDOP
.L014    AIF   ('&OPCD' NE 'INC').L015
&CMND    SETC  'X''4B'''                         X'4B'
         AGO   .ENDOP
.L015    AIF   ('&OPCD' NE 'MARK').L016
&CMND    SETC  'X''0B'''                         X'0B'
         AGO   .ENDOP
.L016    AIF   ('&OPCD' NE 'NEXT').L017
&CMND    SETC  'X''13'''                         X'13'
         AGO   .ENDOP
.L017    AIF   ('&OPCD' NE 'MARKGO').ERCOD
&CMND    SETC  'X''1B'''                         X'1B'
         AGO   .ENDOP
.*
.ERCOD   MNOTE 1,'INVALID OP CODE   GENERATION TERMINATED'
         MEXIT
.*
.ENDOP   ANOP
.*
.* LENGTH ROUTINE
.*
         AIF   ('&COUNT' NE '').E001
&LNGTH   SETC  'L'''
&BYTES   SETC  '&IOAREA'
         AGO   .ENDLN
.E001    ANOP
&BYTES   SETC  '&COUNT'
.ENDLN   ANOP
&NAME    CCW   &CMND,&IOAREA,B'&DC&CC&SLI&SKIP&PCI.000',&LNGTH&BYTES
*
         MEND
