         MACRO
&NAME    EXIT  &RC=0
         GBLA  &GTEST
         GBLC  &GEXITNM
         AIF   ('&GTEST' GE '1').EXM1
         MNOTE 8,'NO ''BEGIN'' MACRO SPECIFIED'
         MEXIT
.EXM1    ANOP
         AIF   ('&RC' EQ 'YES').EXM2
&NAME    LA    R15,&RC
         B     &GEXITNM
         MEXIT
.EXM2    ANOP
&NAME    B     &GEXITNM RETURN CODE NOT ALTERED
         MEND
