         MACRO
&NAME    ZEXT  &RC=0
&NAME    L     R13,4(R13)
         RETURN (14,12),,RC=&RC
         MEND
