         MACRO
&NAME    ZENT  &BASE=R12
&NAME    CSECT
*
R0       EQU   0
R1       EQU   1
R2       EQU   2
R3       EQU   3
R4       EQU   4
R5       EQU   5
R6       EQU   6
R7       EQU   7
R8       EQU   8
R9       EQU   9
R10      EQU   10
R11      EQU   11
R12      EQU   12
R13      EQU   13
R14      EQU   14
R15      EQU   15
*
         GBLC  &PANLEV
         AIF   ('&PANLEV' NE '').PAN
&PANLEV  SETC  '000'
.PAN     ANOP
         SAVE  (14,12),,&SYSECT.*L&PANLEV.*&SYSTIME.*&SYSDATE
         LR    R15,R13        SAVE ADDR OF HSA
         BALR  &BASE,0        LOAD BASE REG
         USING *,&BASE
         CNOP  0,4
         BAL   R13,*+76       POINT R13 AT SAVE-AREA
         DC    18A(0)         GENERATED SAVE AREA
         ST    R13,8(R15)     STORE SAVE ADDR IN HSA
         ST    R15,4(R13)     SAVE HSA ADDR
         MEND
