         MACRO
&NAME    NUMBR
         B     F&SYSNDX+6
A&SYSNDX DC    X'FF00FFFFFFFFFF00FFFFFFFFFF00'
B&SYSNDX DC    X'F0F0F0F0F0F0F0F0F0F0F0F0F0F0F0F0F0F0F0F0'
C&SYSNDX DC    XL10'00'
         DC    X'FAFBFCFDFEFF'
X&SYSNDX DC    F'0'                SAVE AREA REGISTER 2
D&SYSNDX NC    B&SYSNDX,0(14)
E&SYSNDX XC    B&SYSNDX,=20X'F0'
F&SYSNDX TRT   0(0,14),C&SYSNDX-240
&NAME    MVI   D&SYSNDX+1,X'00'    SET INSTR. LENGTHS TO ZERO
         MVI   E&SYSNDX+1,X'00'
         MVI   F&SYSNDX+1,X'00'
         BCTR  15,0
         ST    2,X&SYSNDX          SAVE REGISTER 2
         MVC   B&SYSNDX,=20X'F0'   SET MASK TO LOWEST VALID CHARACTER
         EX    15,D&SYSNDX         EXECUTE AND WITH DATA LENGTH IN R15
         EX    15,E&SYSNDX
         BM    G&SYSNDX            ERROR IF ANY BITS LEFT ON
         EX    15,F&SYSNDX         EXECUTE TRANSLATE AND TEST
         BC    8,H&SYSNDX          IF  OK  BYPASS ERROR ROUTINE
G&SYSNDX LR    14,15               ERROR ROUTINE SETS REGS.14 & 15 EQL.
H&SYSNDX L     2,X&SYSNDX          RESTORE REGISTER 2
         MEND
