./     ADD     LIST=ALL,LEVEL=01,NAME=PDUMP
./       NUMBER  NEW1=10,INCR=10
         MACRO
&NAME    PDUMP
&NAME    DS    0H
         MNOTE 0,'PDUMP NOT SUPPORTED BY O.S.'
         SPACE 2
*        FOR PARTIAL DUMPS OF CORE USE O.S. 'SNAP' MACRO,
*                       REMEMBER THAT A DCB MUST BE PROVIDED,
*                       IT MUST BE OPEN BEFORE SNAP IS ISSUED,
*                       A DD CARD MUST ALSO BE SUPPLIED.
         SPACE 2
         MEND
./     ADD     LIST=ALL,LEVEL=01,NAME=EOJ
./       NUMBER  NEW1=10,INCR=10
         MACRO
&NAME    EOJ
&NAME    DS    0H
         MNOTE 0,'EOJ NOT SUPPORTED BY O.S.'
         SPACE 2
*        TO RETURN CONTROL TO THE OPERATING SYSTEM, THE MACROS
*                       'RETURN' OR 'WAYOUT' MUST BE ISSUED AT
*                       THE SAME CALLING LEVEL AT WHICH THE USER
*                       PROGRAM WAS ENTERED  I.E. THE MAINLINE MODULE.
*                       NOTE THAT CALLS TO THE MODULE EOJ1 WILL NOT
*                       TERMINATE PROCESSING - RETURN OR WAYOUT IS
*                       REQUIRED AFTER THE CALL STATEMENT.
         SPACE 2
         MEND
./     ADD     LIST=ALL,LEVEL=01,NAME=STXIT
./       NUMBER  NEW1=10,INCR=10
         MACRO
&NAME    STXIT
&NAME    DS    0H
         MNOTE 0,'STXIT NOT SUPPORTED BY O.S.'
         SPACE 2
*        FOR 'STXIT IT' USE O.S. MACRO 'STIMER'
*        FOR 'STXIT PC' USE O.S. MACRO 'SPIE'
*        FOR 'STXIT AB' USE O.S. MACRO 'STAE'
*        FOR 'STXIT OC' THERE IS NO EQUIVALENT O.S. FEATURE SINCE
*                       THE EXTERNAL INTERRUPT BUTTON IS RESERVED
*                       FOR MULTIPLE CONSOLE SUPPORT.  USE 'WTOR'
*                       FOR OPERATOR COMMUNICATIONS WITH A 'WAIT'
*                       WHICH CAN BE CHECKED AT VARIOUS STAGES OF
*                       THE USER PROGRAM FOR ANY OPERATOR RESPONSE.
         SPACE 2
         MEND
./     ADD     LIST=ALL,LEVEL=01,NAME=SETIME
./       NUMBER  NEW1=10,INCR=10
         MACRO
&NAME    SETIME
&NAME    DS    0H
         MNOTE 0,'SETIME NOT SUPPORTED BY O.S.'
         SPACE 2
*        FOR SETIME WITH OR WITHOUT A TECB, SPECIFY O.S. MACRO
*                       'STIMER'.  NOTE THAT A WAIT IS INBUILT INTO
*                       THIS MACRO EXPANSION IN THE CASE OF A TECB.
         SPACE 2
         MEND
./     ADD     LIST=ALL,LEVEL=01,NAME=MSGMN
./       NUMBER  NEW1=10,INCR=10
         MACRO
&NAME    MSGMN
&NAME    MSG
         MEND
./     ADD     LIST=ALL,LEVEL=01,NAME=COMRG
./       NUMBER  NEW1=10,INCR=10
         MACRO
&NAME    COMRG
&NAME    DS    0H
         MNOTE 0,'COMRG NOT SUPPORTED BY O.S.'
         SPACE 2
*        FOR UPSI BYTE USE PARM= IN EXEC STATEMENT,
*                       OR RETURN CODES (SEE RETURN MACRO).
*        FOR USER BYTES USE A COMMON DATA SET.
*                       OR COMMON AREA OF A ROOT MODULE,
*                       OR RETURN CODES.
*        FOR DATE USE O.S. MACRO 'TIME' OR,
*                       GENERAL PURPOSE MODULE GETDAT.
*        FOR JOB NAME USE PARM= IN THE EXEC STATEMENT OR
*                       GENERAL PURPOSE MODULE GETJOB.
*        FOR PROBLEM PROGRAM EXPANSION USE O.S. MACROS.
*                       'GETMAIN' AND 'FREEMAIN' AND,
*                       SEE ALSO SUPERVISOR AND DATA MANAGEMENT
*                       SERVICES MANUAL.
         SPACE 2
         MEND
./     ADD     LIST=ALL,LEVEL=01,NAME=CANCEL
./       NUMBER  NEW1=10,INCR=10
         MACRO
&NAME    CANCEL
&NAME    DS    0H
         MNOTE 0,'CANCEL NOT SUPPORTED BY O.S.'
         SPACE 2
*        TO TERMINATE ABNORMALLY USE O.S. 'ABEND' MACRO.
         SPACE 2
         MEND
./     ADD     LIST=ALL,LEVEL=01,NAME=MSG
./       NUMBER  NEW1=10,INCR=10
         MACRO
&NAME    MSG
&NAME    DS    0H
         MNOTE 0,'MSG & MSGMN NOT SUPPORTED BY O.S.'
         SPACE 2
*        FOR CONSOLE I/O USE O.S. MACROS 'WTO' & 'WTOR'.
         SPACE 2
         MEND
./     ADD     LIST=ALL,LEVEL=01,NAME=LOAD
./       NUMBER  NEW1=10,INCR=10
         MACRO
&NAME    LOAD
&NAME    DS    0H
         MNOTE 0,'LOAD VARIES UNDER O.S.'
         SPACE 2
*        LOAD EXISTS UNDER O.S. BUT WITH THE FOLLOWING CHANGES -
*                   1.  ENTRY ADDRESS RETURNED IN R0 RATHER THAN R1.
*                   2.  YOU CANNOT SUPPLY AN OVERRIDING 'LOADADDR'.
*                   3.  USE THE 'DELETE' MACRO TO FREE SPACE CONSUMED
*                       BY A LOADED MODULE.
*                   4.  MACROS SEGLD AND SEGWT MAY ALSO BE USED.
         SPACE 2
         MEND
./     ADD     LIST=ALL,LEVEL=01,NAME=CHKPT
./       NUMBER  NEW1=10,INCR=10
         MACRO
&NAME    CHKPT
&NAME    DS    0H
         MNOTE 0,'CHKPT VARIES UNDER O.S.'
         SPACE 2
*        CHKPT EXISTS UNDER O.S. BUT WITH THE FOLLOWING CHANGES -
*                   1.  RETURN CODE PASSED IN R15 INSTEAD OF R0 AND MAY
*                       ALSO INDICATE SUCCESSFUL RESTART.
*                   2.  NO RESTART ADDRESS SUPPLIED - AUTOMATIC RESTART
*                       OCCURS ON THE FIRST INSTRUCTION AFTER THE
*                       CHKPT EXPANSION.
*                   3.  A DCB ADDRESS SHOULD BE CODED INSTEAD OF
*                       SYSNNN.
*                   4.  NO END ADDRESS SUPPLIED - AUTOMATIC DUMP OF
*                       ENTIRE PARTITION.
*                   5.  NO T POINTER SUPPLIED - O.S. AUTOMATICALLY
*                       REPOSITIONS TAPE FILES.
*                   6.  NO D POINTER SUPPLIED - THIS FUNCTION PERFORMED
*                       DURING ALLOCATION.
*                   7.  FILENAME PARAMETER MUCH THE SAME AS DCB ADDRESS
*                       O.S. LOADS CHKPT ROUTINES AT OPEN TIME.
         SPACE 2
         MEND
./     ADD     LIST=ALL,LEVEL=01,NAME=WAIT
./       NUMBER  NEW1=10,INCR=10
         MACRO
&NAME    WAIT
&NAME    DS    0H
         MNOTE 0,'WAIT VARIES UNDER O.S#'
         PIOCS
*        IF WAIT IS USED WITH SETIME, NOTE THAT O.S. 'STIMER' HAS AN
*                       INBUILT WAIT ROURINE.
         SPACE 2
         MEND
./     ADD     LIST=ALL,LEVEL=01,NAME=CCB
./       NUMBER  NEW1=10,INCR=10
         MACRO
&NAME    CCB
&NAME    DS    0H
         MNOTE 0,'CCB NOT SUPPORTED BY O.S.'
         PIOCS
         MEND
./     ADD     LIST=ALL,LEVEL=01,NAME=TECB
./       NUMBER  NEW1=10,INCR=10
         MACRO
&NAME    TECB
&NAME    DS    0H
         MNOTE 0,'TECB NOT SUPPORTED BY O.S.'
         SPACE 2
*        O.S. MACRO 'STIMER' HAS ITS OWN INBUILT WAIT ROUTINE.
         SPACE 2
         MEND
./     ADD     LIST=ALL,LEVEL=01,NAME=PIOCS
./       NUMBER  NEW1=10,INCR=10
         MACRO
         PIOCS
         SPACE 2
*        THE USE OF PHYSICAL IOCS IS NOT RECOMMENDED UNDER O.S.
*                       LOGICAL IOCS SHOULD BE SUBSTITUTED OR A
*                       UTILITY USED IN PREFERENCE.
*                       SEE SYSTEMS IF PROBLEMS ARISE.
         SPACE 2
         MEND
./     ADD     LIST=ALL,LEVEL=01,NAME=OPEN
./       NUMBER   NEW1=10,INCR=10
         MACRO
&NAME    OPEN
&NAME    DS    0H
         SPACE
         MNOTE 0,'OPEN  MACRO FORMAT VARIES UNDER O.S.'
         SPACE
         MEND
./     ADD     LIST=ALL,LEVEL=01,NAME=CLOSE
./       NUMBER   NEW1=10,INCR=10
         MACRO
&NAME    CLOSE
&NAME    DS    0H
         SPACE
         MNOTE 0,'CLOSE MACRO FORMAT VARIES UNDER O.S.'
         SPACE
         MEND
./     ADD     LIST=ALL,LEVEL=01,NAME=GET
./       NUMBER   NEW1=10,INCR=10
         MACRO
&NAME    GET
&NAME    DS    0H
         SPACE
         MNOTE 0,'GET   MACRO FORMAT VARIES UNDER O.S.'
         SPACE
         MEND
./     ADD     LIST=ALL,LEVEL=01,NAME=PUT
./       NUMBER   NEW1=10,INCR=1
         MACRO
&NAME    PUT
&NAME    DS    0H
         SPACE
         MNOTE 0,'PUT   MACRO FORMAT VARIES UNDER O.S.'
         SPACE
         MEND
./     ADD     LIST=ALL,LEVEL=01,NAME=READ
./       NUMBER   NEW1=10,INCR=1
         MACRO
&NAME    READ
&NAME    DS    0H
         SPACE
         MNOTE 0,'READ  MACRO FORMAT VARIES UNDER O.S.'
         SPACE
         MEND
./     ADD     LIST=ALL,LEVEL=01,NAME=WRITE
./       NUMBER   NEW1=10,INCR=1
         MACRO
&NAME    WRITE
&NAME    DS    0H
         SPACE
         MNOTE 0,'WRITE MACRO FORMAT VARIES UNDER O.S.'
         SPACE
         MEND
./     ADD     LIST=ALL,LEVEL=01,NAME=SETL
./       NUMBER   NEW1=10,INCR=1
         MACRO
&NAME    SETL
&NAME    DS    0H
         SPACE
         MNOTE 0,'SETL  MACRO FORMAT VARIES UNDER O.S.'
         SPACE
         MEND
./     ADD     LIST=ALL,LEVEL=01,NAME=ENDFL
./       NUMBER   NEW1=10,INCR=1
         MACRO
&NAME    ENDFL
         SPACE
         MNOTE 0,'ENDFL  MACRO NOT SUPPORTED BY O.S.'
         SPACE
         MEND
./     ADD     LIST=ALL,LEVEL=01,NAME=SETFL
./       NUMBER   NEW1=10,INCR=1
         MACRO
&NAME    SETFL
&NAME    DS    0H
         SPACE
         MNOTE 0,'SETFL  MACRO NOT SUPPORTED BY O.S.'
         SPACE
         MEND
./     ADD     LIST=ALL,LEVEL=01,NAME=WAITF
./       NUMBER   NEW1=10,INCR=1
         MACRO
&NAME    WAITF
&NAME    DS    0H
         SPACE
         MNOTE 0,'WAITF  MACRO NOT SUPPORTED BY O.S.'
         SPACE
         MEND
./     ADD     LIST=ALL,LEVEL=01,NAME=CLOSER
./       NUMBER   NEW1=10,INCR=1
         MACRO
&NAME    CLOSER
&NAME    DS    0H
         SPACE
         MNOTE 0,'CLOSER MACRO NOT SUPPORTED BY O.S.'
         SPACE
         MEND
./     ADD     LIST=ALL,LEVEL=01,NAME=OPENR
./       NUMBER   NEW1=10,INCR=1
         MACRO
&NAME    OPENR
&NAME    DS    0H
         SPACE
         MNOTE 0,'OPENR  MACRO NOT SUPPORTED BY O.S.'
         SPACE
         MEND
./     ADD     LIST=ALL,LEVEL=01,NAME=ESETL
./       NUMBER   NEW1=10,INCR=1
         MACRO
&NAME    ESETL
&NAME    DS    0H
         SPACE
         MNOTE 0,'ESETL MACRO FORMAT VARIES UNDER O.S.'
         SPACE
         MEND
./     ADD     LIST=ALL,LEVEL=01,NAME=DTFCD
./       NUMBER  NEW1=10,INCR=10
         MACRO
&NAME    DTFCD &DEVADDR=,&IOAREA1=,&IOAREA2=,&BLKSIZE=,&CONTROL=,      X
               &CTLCHR=,&SSELECT=,&CRDERR=,&DEVICE=,&EOFADDR=,&IOREG=, X
               &WORKA=,&MODNAME=,&QUBLKSZ=,&RDONLY=,&SEPASMB=,         X
               &RECFORM=,&RECSIZE=,&TYPEFLE=
         DTFALL
&NAME    DS    0H
         MNOTE 0,'DTFCD NOT SUPPORTED BY O.S.'
         SPACE 2
*        BASIC CODE NECESSARY IS
*        DCB   DSORG=PS,.....      FOLLOWED BY
         SPACE 1
         AIF   (T'&DEVADDR EQ 'O').STEP1
*        DEVADDR=   ...,VOLUME=    IN THE DD STATEMENT
.STEP1   AIF   (T'&IOAREA1 EQ 'O').STEP2
*        IOAREA1=   ...,BUFNO=1,MACRF=(..M..)
.STEP2   AIF   (T'&IOAREA2 EQU 'O').STEP3
*        IOAREA2=   ...,BUFNO=2    OR MORE
.STEP3   AIF   (T'&BLKSIZE EQ 'O').STEP4
*        BLKSIZE=   ...,BLKSIZE=NNN
.STEP4   AIF   (T'&CONTROL EQ 'O').STEP5
*        CONTROL=   ...,MACRF=(..C..)
.STEP5   AIF   (T'&CTLCHR EQ 'O').STEP6
*        CTLCHR=    ...,RECFM=(...M/A)
.STEP6   AIF   (T'&SSELECT EQ 'O').STEP7
*        SSELECT=   ...,DEVD=(STACK=1/2)
.STEP7   AIF   (T'&CRDERR EQ 'O').STEP8
*        CRDERR=    NOT APPLICABLE
.STEP8   AIF   (T'&DEVICE EQ 'O').STEP9
*        DEVICE=    ...,UNIT=      IN THE DD STATEMENT
.STEP9   AIF   (T'&EOFADDR EQ 'O').STEP10
*        EOFADDR=   ...,EODAD=XXXXXXXX
.STEP10  AIF   (T'&IOREG EQ 'O').STEP11
*        IOREG=     ...,MACRF=(...L..)
.STEP11  AIF   (T'&WORKA EQ 'O').STEP12
*        WORKA=     ...,MACRF=(..M..)
.STEP12  AIF   (T'&MODNAME EQ 'O').STEP13
*        MODNAME=   NOT APPLICABLE
.STEP13  AIF   (T'&QUBLKSZ EQ 'O').STEP14
*        QUBLKSZ=   NOT APPLICABLE
.STEP14  AIF   (T'&RDONLY EQ 'O').STEP15
*        RDONLY=    NOT APPLICABLE
.STEP15  AIF   (T'&SEPASMB EQ 'O').STEP16
*        SEPASMB=   USER MUST CODE THE DCB AS A CSECT IF REQUIRED
.STEP16  AIF   (T'&RECFORM EQ 'O').STEP17
*        RECFORM=   ...,RECFM=(...)
.STEP17  AIF   (T'&RECSIZE EQ 'O').STEP18
*        RECSIZE=   ...,LRECL=NN
.STEP18  AIF   (T'&TYPEFLE EQ 'O').STEP19
*        TYPEFLE=   ...,DEVD=RD/PC,MACRF=(G/P..)
*                   NB THIS ELIMINATES DEVICE INDEPENDENCE .. CODE
*                   DEVD=DA IF DASD SYSIN & SYSOUT QUEUES TO BE USED.
.STEP19  ANOP
         SPACE 2
         MEND
./     ADD     LIST=ALL,LEVEL=01,NAME=DTFPR
./       NUMBER  NEW1=10,INCR=10
         MACRO
&NAME    DTFPR &DEVADDR=,&IOAREA1=,&IOAREA2=,&BLKSIZE=,&CONTROL=,      X
               &CRLCHR=,&DEVICE=,&IOREG=,&MODNAME=,&PRINTOV=,&RDONLY=, X
               &RECFORM=,&RECSIZE=,&SEPASMB=,&STLIST=,&UCS=,&WORKA=
         DTFALL
&NAME    DS    0H
         MNOTE 0,'DTFPR NOT SUPPORTED BY O.S.'
         SPACE 2
*        BASIC CODE NECESSARY IS
*        DCB   DSORG=PS,.....      FOLLOWED BY
         SPACE 1
         AIF   (T'&DEVADDR EQ 'O').STEP1
*        DEVADDR=   ...,UNIT=      IN THE DD STATEMENT
.STEP1   AIF   (T'&IOAREA1 EQ 'O').STEP2
*        IOAREA1=   ...,BUFNO=1,MACRF=(..M..)
.STEP2   AIF   (T'&IOAREA2 EQ 'O').STEP3
*        IOAREA2=   ...,BUFNO=2    OR MORE
.STEP3   AIF   (T'&BLKSIZE EQ 'O').STEP4
*        BLKSIZE=   ...,BLKSIZE=NN
.STEP4   AIF   (T'&CONTROL EQ 'O').STEP5
*        CONTROL=   ...,MACRF=(PC) AND ALSO
*                   ...,UNIT=      IN THE DD STATEMENT
.STEP5   AIF   (T'&CRLCHR EQ 'O').STEP6
*        CRLCHR=    ...,RECFM=(..A/M)
.STEP6   AIF   (T'&DEVICE EQ 'O').STEP7
*        DEVICE=    ...,UNIT=      IN THE DD STATEMENT
.STEP7   AIF   (T'&IOREG EQ 'O').STEP8
*        IOREG=     ...,MACRF=(..L..)
.STEP8   AIF   (T'&MODNAME EQ 'O').STEP9
*        MODNAME=   NOT APPLICABLE
.STEP9   AIF   (T'&PRINTOV EQ 'O').STEP10
*        PRINTOV=   USE PRTOV MACRO
.STEP10  AIF   (T'&RDONLY EQ 'O').STEP11
*        RDONLY=    NOT APPLICABLE
.STEP11  AIF   (T'&RECFORM EQ 'O').STEP12
*        RECFORM=   ...,RECFM=(...)
.STEP12  AIF   (T'&RECSIZE EQ 'O').STEP13
*        RECSIZE=   ...,LRECL=NN
.STEP13  AIF   (T'&SEPASMB EQ 'O').STEP14
*        SEPASMB=   USER MUST CODE THE DCB AS A CSECT IF REQUIRED
.STEP14  AIF   (T'&STLIST EQ 'O').STEP15
*        STLIST=    NOT APPLICABLE
.STEP15  AIF   (T'&UCS EQ 'O').STEP16
*        UCS=       ...,OPTCD=(..U..)
.STEP16  AIF   (T'&WORKA EQ 'O').STEP17
*        WORKA=     ...,MACRF=(..M..)
.STEP17  ANOP
         SPACE 2
         MEND
./     ADD     LIST=ALL,LEVEL=01,NAME=DTFMT
./       NUMBER  NEW1=10,INCR=10
         MACRO
&NAME    DTFMT &BLKSIZE=,&DEVADDR=,&EOFADDR=,&FILABL=,&IOAREA1=,       X
               &IOAREA2=,&CKPTREC=,&ERROPT=,&READ=,&IOREG=,&WORKA=,    X
               &LABADDR=,&MODNAME=,&HDRINFO=,&RDONLY=,&RECFORM=,       X
               &RECSIZE=,&REWIND=,&SEPASMB=,&TPMARK=,&TYPEFLE=,        X
               &NOTEPNT=,&VARBLD=,&WLRERR=
         DTFALL
&NAME    DS    0H
         MNOTE 0,'DTFMT NOT SUPPORTED BY O.S.'
         SPACE 2
*        BASIC CODE NECESSARY IS
*        DCB   DSORG=PS,.....      FOLLOWED BY
         SPACE 1
         AIF   (T'&BLKSIZE EQ 'O').STEP1
*        BLKSIZE=   ...,BLKSIZE=NNN
.STEP1   AIF   (T'&DEVADDR EQ 'O').STEP2
*        DEVADDR=   ...,VOLUME=    IN THE DD STATEMENT
.STEP2   AIF   (T'&EOFADDR EQ 'O').STEP3
*        EOFADDR=   ...,EODAD=XXXXXXXX
.STEP3   AIF   (T'&FILABL EQ 'O').STEP4
*        FILABL=    ...,LABEL=     IN THE DD STATEMENT
.STEP4   AIF   (T'&IOAREA1 EQ 'O').STEP5
*        IOAREA1=   ...,BUFNO=1,MACRF=(..M..)
.STEP5   AIF   (T'&IOAREA2 EQ 'O').STEP6
*        IOAREA2=   ...,BUFNO=2    OR MORE
.STEP6   AIF   (T'&CKPTREC EQ 'O').STEP7
*        CKPTREC=   INTERSPERSED CHKPT RECORDS NOT ALLOWED BY O.S.
.STEP7   AIF   (T'&ERROPT EQ 'O').STEP8
*        ERROPT=    ...,EROPT=ACC/SKP/ABE    FOR IGNORE OR SKIP
*                   ...,SYNAD=XXXXXXXX       FOR USER HANDLING ROUTINE
.STEP8   AIF   (T'&READ EQ 'O').STEP9
*        READ=      THIS IS AN OPTION OF THE OPEN MACRO UNDER O.S.
.STEP9   AIF   (T'&IOREG EQ 'O').STEP10
*        IOREG=     ...,MACRF=(..L..)
.STEP10  AIF   (T'&WORKA EQ 'O').STEP11
*        WORKA=     ...,MACRF=(..M..)
.STEP11  AIF   (T'&LABADDR EQ 'O').STEP12
*        LABADDR=   ...,EXLST=XXXXXXXX       FOR STANDARD LABELS
*                   ...,LABEL=(,SUL)         (IN THE DD STATEMENT)
*                   FOR NON-STANDARD LABELS, SEE SYSTEMS
.STEP12  AIF   (T'&MODNAME EQ 'O').STEP13
*        MODNAME=   NOT APPLICABLE
.STEP13  AIF   (T'&HDRINFO EQ 'O').STEP14
*        HDRINFO=   NOT APPLICABLE
.STEP14  AIF   (T'&RDONLY EQ 'O').STEP15
*        RDONLY=    NOT APPLICABLE
.STEP15  AIF   (T'&RECFORM EQ 'O').STEP16
*        RECFORM=   ...,RECFM=XXX
.STEP16  AIF   (T'&RECSIZE EQ 'O').STEP17
*        RECSIZE=   ...,LRECL=NNN
.STEP17  AIF   (T'&REWIND EQ 'O').STEP18
*        REWIND=    THIS IS AN OPTION OF THE OPEN MACRO UNDER O.S.
.STEP18  AIF   (T'&SEPASMB EQ 'O').STEP19
*        SEPASMB=   USER MUST CODE THE DCB AS A CSECT IF REQUIRED
.STEP19  AIF   (T'&TPMARK EQ 'O').STEP20
*        TPMARK=    THIS IS AN O.S. STANDARD FEATURE  I.E. ALWAYS 'YES'
.STEP20  AIF   (T'&TYPEFLE EQ 'O').STEP21
*        TYPEFLE=   ...,MACRF=(G/P...)
*                   ALSO CODE INPUT OR OUTPUT IN OPEN MACRO
.STEP21  AIF   (T'&NOTEPNT EQ 'O').STEP22
*        NOTEPNT=   ...,MACRF=(RP,WP)
.STEP22  AIF   (T'&VARBLD EQ 'O').STEP23
*        VARBLD=    CODE (L'RECORD+4) IN LRECL FIELD OF DCB
.STEP23  AIF   (T'&WLRERR EQ 'O').STEP24
*        WLRERR=    ...,SYNAD=XXXXXXXX
.STEP24  ANOP
         SPACE 2
         MEND
./     ADD     LIST=ALL,LEVEL=01,NAME=DTFSD
./       NUMBER  NEW1=10,INCR=10
         MACRO
&NAME    DTFSD &BLKSIZE=,&EOFADDR=,&IOAREA1=,&IOAREA2=,&IOREG=,        X
               &RECFORM=,&RECSIZE=,&CONTROL=,&DELETFL=,&DEVADDR=,      X
               &DEVICE=,&ERROPT=,&WLRERR=,&WORKA=,&VARBLD=,&HOLD=,     X
               &MODNAME=,&RDONLY=,&SEPASMB=,&TRUNC=,&TYPEFLE=,         X
               &UPDATE=,&VERIFY=,&LABADDR,&NOTEPNT=
         DTFALL
&NAME    DS    0H
         MNOTE 0,'DTFSD NOT SUPPORTED BY O.S.'
         SPACE 2
*        BASIC CODE NECESSARY IS
*        DCB   DSORG=PS,.....      FOLLOWED BY
         SPACE 1
         AIF   (T'&BLKSIZE EQ 'O').STEP1
*        BLKSIZE=   ...,BLKSIZE=NN
.STEP1   AIF   (T'&EOFADDR EQ 'O').STEP2
*        EOFADDR=   ...,EODAD=XXXXXXXX
.STEP2   AIF   (T'&IOAREA1 EQ 'O').STEP3
*        IOAREA1=   ...,BUFNO=1,MACRF=(..M..)
.STEP3   AIF   (T'&IOAREA2 EQ 'O').STEP4
*        IOAREA2=   ...,BUFNO=2    OR MORE
.STEP4   AIF   (T'&IOREG EQ 'O').STEP5
*        IOREG=     ...,MACRF=(..L..)
.STEP5   AIF   (T'&RECFORM EQ HO').STEP6
*        RECFORM=   ...,RECFM=XXX
.STEP6   AIF   (T'&RECSIZE EQ 'O').STEP7
*        RECSIZE=   ...,LRECL=NNN
.STEP7   AIF   (T'&CONTROL EQ 'O').STEP8
*        CONTROL=   NOT REQUIRED
.STEP8   AIF   (T'&DELETFL EQ 'O').STEP9
*        DELETFL=   ...,DISP=      IN THE DD STATEMENT
.STEP9   AIF   (T'&DEVADDR EQ 'O').STEP10
*        DEVADDR=   ...,UNIT=      IN THE DD STATEMENT
.STEP10  AIF   (T'&DEVICE EQ 'O').STEP11
*        DEVICE=    ...,UNIT=      IN THE DD STATEMENT
.STEP11  AIF   (T'&ERROPT EQ 'O').STEP12
*        ERROPT=    ...,EROPT=ACC/SKP        FOR IGNORE OR SKIP (QSAM)
*                   ...,SYNAD=XXXXXXXX       FOR USER HANDLING ROUTINE
.STEP12  AIF   (T'&WLRERR EQ 'O').STEP13
*        WLRERR=    ...,SYNAD=XXXXXXXX
.STEP13  AIF   (T'&WORKA EQ 'O').STEP14
*        WORKA=     ...,MACRF=(..M..)
.STEP14  AIF   (T'&VARBLD EQ 'O').STEP15
*        VARBLD=    CODE (L'RECORD+4) IN LRECL FIELD OF DCB
.STEP15  AIF   (T'&HOLD EQ 'O').STEP16
*        HOLD=      USE O.S. ENQ/DEQ LOGIC FOR SPECIFIC RESOURCES
.STEP16  AIF   (T'&MODNAME EQ 'O').STEP17
*        MODNAME=   NOT APPLICABLE
.STEP17  AIF   (T'&RDONLY EQ 'O').STEP18
*        RDONLY=    NOT APPLICABLE
.STEP19  AIF   (T'&SEPASMB EQ 'O').STEP20
*        SEPASMB=   USER MUST CODE THE DCB AS A CSECT IF REQUIRED
.STEP20  AIF   (T'&TRUNC EQ 'O').STEP21
*        TRUNC=     TRUNCATED BLOCKS ASSUMED UNLESS RECFM=(...S) CODED
.STEP21  AIF   (T'&TYPEFLE EQ 'O').STEP22
*        TYPEFLE=   ...,MACRF=(G/P...)
*                   ALSO CODE INPUT OT OUTPUT IN OPEN MACRO
.STEP22  AIF   (T'&UPDATE EQ 'O').STEP23
*        UPDATE=    ...,MACRF=(G/R...,P/W...)
*                   ALSO CODE UPDATE IN OPEN MACRO FOR NON-WORK FILES
.STEP23  AIF   (T'&VERIFY EQ 'O').STEP24
*        VERIFY=    ...,OPTCD=W
.STEP24  AIF   (T'&LABADDR EQ 'O').STEP25
*        LABADDR=   ...,EXIST=XXXXXXXX
.STEP25  AIF   (T'&NOTEPNT EQ 'O').STEP26
*        NOTEPNT=   ...,MACRF=(..P..)
.STEP26  ANOP
         SPACE 2
         MEND
./     ADD     LIST=ALL,LEVEL=01,NAME=DTFDA
./       NUMBER  NEW1=10,INCR=10
         MACRO
&NAME    DTFDA &BLKSIZE=,&DEVICE=,&ERRBYTE=,&IOAREA1=,&TYPEFLE=,       X
               &AFTER=,&CONTROL=,&DEVADDR=,&ERREXT=,&HOLD=,&DSKXTNT=,  X
               &IDLOC=,&KEYARG=,&KEYLEN=,&LABADDR=,&MODNAME=,&RDONLY=, X
               &READKEY=,&READID,=&WRITEID=,&WRITEKY=,&RECFORM=,       X
               &RECSIZE=,&RELTYPE=,&SEPASMB=,&SRCHM=,&TRLBL=,&VERIFY=, X
               &XTNTXIT=
         DTFALL
&NAME    DS    0H
         MNOTE 0,'DTFDA NOT SUPPORTED BY O.S.'
         SPACE 2
*        BASIC CODE NECESSARY IS
*        DCB   DSORG=DA,.....      FOLLOWED BY
         SPACE 1
         AIF   (T'&BLKSIZE EQ 'O').STEP1
*        BLKSIZE=   ...,BLKSIZE=NNN
.STEP1   AIF   (T'&DEVICE EQ 'O').STEP2
*        DEVICE=    ...,UNIT=      IN THE DD STATEMENT
.STEP2   AIF   (T'&ERRBYTE EQ 'O').STEP3
*        ERRBYTE=   THIS INFORMATION AVAILABLE IN SYNAD ROUTINE
.STEP3   AIF   (T'&IOAREA1 EQ 'O').STEP4
*        IOAREA1=   THIS ADDRESS IS SPECIFIED IN READ/WRITE MACROS
.STEP4   AIF   (T'&TYPEFLE EQ 'O').STEP5
*        TYPEFLE=   THIS IS AN OPTION OF THE OPEN MACRO UNDER O.S.
.STEP5   AIF   (T'&AFTER EQ 'O').STEP6
*        AFTER=     NO O.S. EQUIVALENT
*                   CODE DISP=NEW AND RUN PREFORMAT PROGRAM
.STEP6   AIF   (T'&CONTROL EQ 'O').STEP7
*        CONTROL=   NO O.S. EQUIVALENT
.STEP7   AIF   (T'&DEVADDR EQ 'O').STEP8
*        DEVADDR=   ...,VOLUME=    IN THE DD STATEMENT
.STEP8   AIF   (T'&ERREXT EQ 'O').STEP9
*        ERREXT=    ...,SYNAD=XXXXXXXX
.STEP9   AIF   (T'&HOLD EQ 'O').STEP10
*        HOLD=      USE O.S. ENQ/DEQ LOGIC FOR SPECIFIC RESOURCES
.STEP10  AIF   (T'&DSKXTNT EQ 'O').STEP11
*        DSKXTNT=   ...,OPTCD=(..R..)
.STEP11  AIF   (T'&IDLOC EQ 'O').STEP12
*        IDLOC=     USE TYPECODE AND BLOCK ADDRESS OPTIONS IN READ/
*                   WRITE MACROS.  FORMAT OF FEEDBACK DEPENDS ON
*                   OPTCD= IN DCB.
.STEP12  AIF   (T'&KEYARG EQ 'O').STEP13
*        KEYARG=    USE KEY ADDRESS IN READ/WRITE MACROS
.STEP13  AIF   (T'&KEYLEN EQ 'O').STEP14
*        KEYLEN=    ...,KEYLEN=NNN
.STEP14  AIF   (T'&LABADDR EQ 'O').STEP15
*        LABADDR=   ...,EXLST=XXXXXXXX
.STEP15  AIF   (T'&MODNAME EQ 'O').STEP16
*        MODNAME=   NOT APPLICABLE
.STEP16  AIF   (T'&RDONLY EQ 'O').STEP17
*        RDONLY=    NOT APPLICABLE
.STEP17  AIF   (T'&READKEY EQ 'O').STEP18
*        READKEY=   ...,MACRF=(..RK..)
.STEP18  AIF   (T'&READID EQ 'O').STEP19
*        READID=    ...,MACRF=(..RI..)
.STEP19  AIF   (T'&WRITEID EQ 'O').STEP20
*        WRITEID=   ...,MACRF=(..WI..)
.STEP20  AIF   (T'&WRITEKY EQ 'O').STEP21
*        WRITEKY=   ...,MACRF=(..WK..)
.STEP21  AIF   (T'&RECFORM EQ 'O').STEP22
*        RECFORM=   ...,RECFM=XXX
.STEP22  AIF   (T'&RECSIZE EQ 'O').STEP23
*        RECSIZE=   USE LENGTH IN READ/WRITE MACROS
.STEP23  AIF   (T'&RELTYPE EQ 'O').STEP24
*        RELTYPE=   NO EQUIVALENT FOR DEC
.STEP24  AIF   (T'&SEPASMB EQ 'O').STEP25
*        SEPASMB=   USER MUST CODE THE DCB AS A CSECT IF REQUIRED
.STEP25  AIF   (T'&SRCHM EQ 'O').STEP26
*        SRCHM=     ...,LIMCT=X,OPTCD=E
.STEP26  AIF   (T'&TRLBL EQ 'O').STEP27
*        TRLBL=     ...,EXLST=XXXXXXXX
.STEP27  AIF   (T'&VERIFY EQ 'O').STEP28
*        VERIFY=    ...,OPTCD=W
.STEP28  AIF   (T'&XTNTXIT EQ 'O').STEP29
*        XTNTXIT=   NO EQUIVALENT
.STEP29  ANOP
         SPACE 2
         MEND
./     ADD     LIST=ALL,LEVEL=01,NAME=DTFALL
./       NUMBER  NEW1=10,INCR=10
         MACRO
         DTFALL
         GBLB  &DTFALL1
         AIF   (&DTFALL1).EXIT
         SPACE 1
*        THE O.S. OPERANDS SHOWN BELOW ARE MERELY GUIDELINES.  FULLER
*        COVERAGE MAY BE FOUND IN THE FOLLOWING -
*        1.   SUPERVISOR AND DATA MANAGEMENT MACROS MANUAL
*             DCB MACRO --- PAGES 51-70
*        2.   JOB CONTROL LANGUAGE REFERENCE MANUAL
*             DD STATEMENT --- PAGES 105-242
*        3.   DOS TO OS IMPLEMENTATION GUIDE
*             GENERAL --- PAGES 111-183
*             FROM WHICH THE INFORMATION HERE IS EXTRACTED
*
*        THE FOLLOWING POINTS SHOULD BE NOTED FOR ALL DTF'S -
*
*             A.  DO NOT TRANSCRIBE PARAMETERS LIKE WORKA=
*                 IOAREA= ETC. INTO THE DCB - DATA MANAGEMENT WILL
*                 ALLOCATE BUFFER SPACE DYNAMICALLY AT EXECUTION IF
*                 E.G. BUFNO=, BUFLN= ARE NOT CODED.
*             B.  AVOID DEVICE DEPENDENT PARAMETERS E.G. PRINTOV=,
*                 CONTROL= IN DTF'S AND DEVD=, OPTCD= IN DCB'S
*                 WHEREVER POSSIBLE.
*             C.  FOR GREATER FLEXIBILITY, CODE PARAMETERS LIKE
*                 BLKSIZE= IN THE JCL SO THAT MODIFICATIONS CAN BE
*                 MADE EXTERNALLY.  THE MINIMUM NUMBER OF KEYWORDS
*                 FOR A DCB IS MACRF=, DDNAME=, DSORG=.
*             D.  BEWARE DEFAULTS FOR OMITTED PARAMETERS - E.G.
*                 RECFORM= DEFAULTS TO FIXUNB IN A DTF, WHEREAS
*                 RECFM= DEFAULTS TO UNDEFINED IN A DCB.
         SPACE 1
&DTFALL1 SETB  1
.EXIT    ANOP
         MEND
./     ADD     LIST=ALL,LEVEL=01,NAME=MVCOM
./       NUMBER  NEW1=10,INCR=10
         MACRO
&NAME    MVCOM
         MNOTE 0,'MVCOM NOT SUPPORTED BY O.S.'
&NAME    COMRG
         MEND
./     ADD     LIST=ALL,LEVEL=01,NAME=FETCH
./       NUMBER  NEW1=10,INCR=10
         MACRO
&NAME    FETCH
&NAME    DS    0H
         MNOTE 0,'FETCH NOT SUPPORTED BY O.S.'
         SPACE 2
*        FOR TRANSFER OF CONTROL USE O.S. MACROS
*                       'LINK' AND 'XCTL' AND,
*                       SEE ALSO SUPERVISOR AND DATA MANAGEMENT
*                       SERVICES MANUAL.
         SPACE 2
         MEND
./     ADD     LIST=ALL,LEVEL=01,NAME=GETIME
./       NUMBER  NEW1=10,INCR=10
         MACRO
&NAME    GETIME
&NAME    DS    0H
         MNOTE 0,'GETIME NOT SUPPORTED BY O.S.'
         SPACE 2
*        FOR GETIME STANDARD USE O.S. 'TIME DEC'
*        FOR GETIME BINARY USE O.S. 'TIME BIN'
*        FOR GETIME TU USE O.S. 'TIME TU'
         SPACE 2
         MEND
./     ADD     LIST=ALL,LEVEL=01,NAME=DTFIS
./       NUMBER  NEW1=10,INCR=10
         MACRO
&NAME    DTFIS &DSKXTNT=,&IOROUT=,&KEYLEN=,&NRECDS=,&RECFORM=,         X
               &RECSIZE=,&CYLOFL=,&DEVICE=,&ERREXT=,&MSTIND=,          X
               &INDAREA=,&INDSIZE=,&INDSKIP=,&IOAREA2,&WORKL=,&WORKS=, X
               &WORKR=,&IOAREAL=,&IOAREAR=,&IOAREAS=,&IOREG=,&IOSIZE=, X
               &HINDEX=,&KEYARG=,&KEYLOC=,&TYPEFLE=,&VERIFY=,          X
               &MODNAME=,&RDONLY=,&SEPASMB=
         DTFALL
&NAME    DS    0H
         MNOTE 0,'DTFIS NOT SUPPORTED BY O.S.'
         SPACE 2
*        BASIC CODE NECESSARY IS
*        DCB   DSORG=IS,.....      FOLLOWED BY
         SPACE 1
         AIF   (T'&DSKXTNT EQ 'O').STEP1
*        DSKXTNT=   ...,SPACE=     IN THE DD STATEMENT
.STEP1   AIF   (T'&IOROUT EQ 'O').STEP2
*        IOROUT=    ...,MACRF=     VARIOUS OPTIONS
*                   ALSO USE OPEN MACRO OPTIONS
.STEP2   AIF   (T'&KEYLEN EQ 'O').STEP3
*        KEYLEN=    ...,KEYLEN=NN
.STEP3   AIF   (T'&NRECDS EQ 'O').STEP4
*        NRECDS=    ...,BLKSIZE=NNN
.STEP4   AIF   (T'&RECFORM EQ 'O').STEP5
*        RECFORM=   ...,RECFM=XXX
.STEP5   AIF   (T'&RECSIZE EQ 'O').STEP6
*        RECSIZE=   ...,LRECL=NNN
.STEP6   AIF   (T'&CYLOFL EQ 'O').STEP7
*        CYLOFL=    ...,CYLOFL=NN
.STEP7   AIF   (T'&DEVICE EQ 'O').STEP8
*        DEVICE=    ...,UNIT=      IN THE DD STATEMENT
.STEP8   AIF   (T'&ERREXT EQ 'O').STEP9
*        ERREXT=    ...,SYNAD=XXXXXXXX
.STEP9   AIF   (T'&MSTIND EQ 'O').STEP10
*        MSTIND=    ...,OPTCD=M,NTM=NN
.STEP10  AIF   (T'&INDAREA EQ 'O').STEP11
*        INDAREA=   ...,MSHI=XXXXXXXX
.STEP11  AIF   (T'&INDSIZE EQ 'O').STEP12
*        INDSIZE=   ...,SMSI=NNN
.STEP12  AIF   (T'&INDSKIP EQ 'O').STEP13
*        INDSKIP=   NO EQUIVALENT
.STEP13  AIF   (T'&IOAREA2 EQ 'O'E.STEP14
*        IOAREA2=   ...,BUFNO=(BLOCKS PER TRACK + 1)
.STEP14  AIF   (T'&WORKL NE 'O').STEP15
         AIF   (T'&WORKS NE 'O').STEP15
         AIF   (T'&WORKR EQ 'O').STEP16
.STEP15  ANOP
*        WORKL=  *
*        WORKS=  * ...,MACRF=(..M..)
*        WORKR=  *
.STEP16  AIF   (T'&IOAREAL NE 'O').STEP17
         AIF   (T'&IOAREAR NE 'O').STEP17
         AIF   (T'&IOAREAS NE 'O').STEP18
.STEP17  ANOP
*        IOAREAL=*
*        IOAREAR= * ...,BUFNO=1,MACRF=(..L..)
*        IOAREAS=*
.STEP18  AIF   (T'&IOREG EQ 'O').STEP19
*        IOREG=     ...,MACRF=(..L..)
.STEP19  AIF   (T'&IOSIZE EQ 'O').STEP20
*        IOSIZE=    ...,MSWA=XXXXXXXX,SMSW=NNN
.STEP20  AIF   (T'&HINDEX EQ 'O').STEP21
*        HINDEX=    ...,UNIT=      IN THE DD STATEMENT
.STEP21  AIF   (T'&KEYARG EQ 'O').STEP22
*        KEYARG=    SEQUENTIAL RETRIEVAL...SPECIFY IN SETL MACRO
*                   RANDOM RETRIEVAL...SPECIFY IN READ/WRITE MACROS
.STEP22  AIF   (T'&KEYLOC EQ 'O').STEP23
*        KEYLOC=    ...,BKP=N
.STEP23  AIF   (T'&TYPEFLE EQ 'O').STEP24
*        TYPEFLE=   ...,MACRF=     VARIOUS OPTIONS
*                   ALSO USE OPEN MACRO OPTIONS
.STEP24  AIF   (T'&VERIFY EQ 'O').STEP25
*        VERIFY=    ...,OPTCD=W    (NOT VALID FOR RANDOM ADDRESSING)
.STEP25  AIF   (T'&MODNAME EQ 'O').STEP26
*        MODNAME=   NOT APPLICABLE
.STEP26  AIF   (T'&RDONLY EQ 'O').STEP27
*        RDONLY=    NOT APPLICABLE
.STEP27  AIF   (T'&SEPASMB EQ 'O').STEP28
*        SEPASMB=   USER MUST CODE THE DCB AS A CSECT IF REQUIRED
.STEP28  ANOP
         SPACE 2
         MEND
./     ADD     LIST=ALL,LEVEL=01,NAME=EXCP
./       NUMBER  NEW1=10,INCR=10
         MACRO
&NAME    EXCP
&NAME    DS    0H
         MNOTE 0,'EXCP VARIES UNDER O.S.'
         PIOCS
         MEND
./       ENDUP
