         TITLE  'SPY56 - DISPLAY SYSOUT LINES - REL 1.0'
******************************************************************
* SPY56 WILL DISPLAY THE AMOUNT OF LINES ON VS1 OUTPUT QUEUES.   *
******************************************************************
* MACRO
         MACRO
&NAME    CUREG
         PUSH  PRINT
         PRINT ON
         MNOTE 'DATE OF THIS VERSION OF THE CUREG MACRO:16/01/75'
         POP   PRINT
         ACTR  50
         LCLA  &X,&Y,&Z
*    GENERAL REGISTERS
.LPR     ANOP
R&X      EQU   &X
&X       SETA  &X+1
         AIF   (&X LT 16).LPR
*    CONTROL REGISTERS
.LPC     ANOP
C&Y      EQU  &Y
&Y       SETA  &Y+1
         AIF   (&Y LT 16).LPC
*    FLOATING POINT REGISTERS
.LPF     ANOP
F&Z      EQU   &Z
&Z       SETA  &Z+2
         AIF   (&Z LT 8).LPF
         MEND
         MACRO
&NAME    CUENTER &BASE=(R12),&RECURSE=,&RENT=,&FIRST=,&CSECT=,&PARM=
         LCLA  &AL0,&AL1,&AL2,&AL9,&AL12
         ACTR  45                                              DEC 75
&AL2     SETA  &SYSNDX
         PUSH  PRINT
         PRINT ON
         MNOTE 'DATE OF THIS VERSION OF THE CUENTER MACRO:16/06/77'
         POP   PRINT
         LCLC  &CL0,&CL1,&CL2,&CL3,&CL12,&CL13,&CL50
         LCLC  &CL51,&CL52,&CL53
         GBLB  &BG15
         AIF   ('&NAME' EQ '').B98
         ENTRY &NAME
.B98     ANOP
&CL0     SETC  '12'
         AIF   ('&BASE'(1,1) EQ '(').B10  *VALIDATE &BASE PARAMETER
&CL0     SETC  '&BASE'
         AIF   ('&CL0' EQ 'NONE').B11
         AIF   ('&CL0'(1,1) NE 'R').B4B
&AL9     SETA  K'&CL0-1
&CL0     SETC  '&CL0'(2,&AL9)
.B4B     AIF   ((&CL0 GT 1) AND (&CL0 LT 13)).B11
.BERA    MNOTE 9,'&&BASES WRONG,MACRO ABANDONED'
         MEXIT
.B10     ANOP
&CL0     SETC  '&BASE(1)'
&AL0     SETA  1                        COUNT ALONG TO-BE-SCANNED BASES
.B13     ANOP
&AL1     SETA  1                       *COUNT ALONG PREVIOUSLY SCANNED
&CL12    SETC  '&BASE(&AL0)'
         AIF ('&CL12'(1,1) NE 'R').B12A
&AL9     SETA  K'&CL12-1
&CL12    SETC  '&CL12'(2,&AL9)
.B12A    ANOP
&AL12    SETA  &CL12
.B12     AIF    ((&AL12 LT 2) OR (&AL12 GT 12)).BERA
.B15     AIF   (&AL1 EQ &AL0).B14      *J OUT IF REACHED LATEST
&CL13    SETC  '&BASE(&AL1)'
         AIF   ('&CL13'(1,1) NE 'R').B15A
&AL9     SETA  K'&CL13-1
&CL13    SETC  '&CL13'(2,&AL9)
.B15A    AIF   (&CL12 EQ &CL13).BERA *ERROR IF DUPLICATED
&AL1     SETA  &AL1+1                  *STEP ALREADY SCANNED PTR
         AGO   .B15
.B14     ANOP
&AL0     SETA  &AL0+1                  *STEP SCAN POINTER
         AIF   ('&BASE(&AL0)' NE '').B13 *J IF NOT NULL
&AL9     SETA  N'&BASE
         AIF   (&AL0 LT &AL9).BERA *ERROR IF NULL ELEMENT
.B11    ANOP
.*   START GENERATING PROGRAM
         DS    0H
         BALR  R15,0
         USING *,R15
&CL1     SETC  '&CSECT'
         AIF   ('&CL1' NE '').B30
&CL1     SETC  '*'
.B30     ANOP
&NAME    SAVE  (14,12),,&CL1
.B32     ANOP
.B90A    BAL   &CL0,OCSVA&AL2
         DROP  R15
         USING *,&CL0
OCSVD&AL2 EQU  *         HOLD IMMEDIATELY AFTER USING STATEMENT
         AIF   (&BG15).NODATIM
         CUREG                          REGISTER MNEMNONICS
&CL51    SETC  '&NAME'
         AIF   (K'&CL51 LE 8).DT1
&CL51    SETC  '&CL51'(1,8)
         AGO   .DT2
.DT1     ANOP
         AIF   ('&CL51' NE '').DT2
&CL51    SETC  '&SYSECT'
         AIF   ('&CL51' NE '').DT2
&CL51    SETC  '????????'
.DT2     ANOP
&CL52    SETC  '&SYSDATE'(4,2)'.'.'&SYSDATE'(1,2)'.'.'&SYSDATE'(7,2)
&CL53    SETC  '&SYSTIME'(1,2)':'.'&SYSTIME'(4,2)':00'
CUVRSION DC    C'****VERSION/',CL8'&CL51',C'/&CL52./&CL53'
&BG15    SETB  (1)                                             DEC 75
.NODATIM ANOP
OCSAR&AL2 DS    18F
OCSVA&AL2 EQU  *
         AIF   ('&BASE' EQ '').B89
&AL9     SETA  N'&BASE
         AIF   (&AL9 LE 1).B89
&AL1     SETA  &AL9
&AL0     SETA  2
.B88     ANOP
&CL2     SETC  '&BASE(&AL0)'
&CL3     SETC  '&BASE(&AL0-1)'
         LA    &CL2,1
         LA    &CL2,4095(&CL2,&CL3)
         USING OCSVD&AL2+4096*(&AL0-1),&CL2
         AIF   (&AL0 EQ &AL1).B87
&AL0     SETA  &AL0+1
         AGO   .B88
.B89     ANOP
.B87     ANOP
         ST    R13,OCSAR&AL2+4
         LR    R15,R13
         LA    R13,OCSAR&AL2
         ST    R13,8(R15)
         MEXIT
.MEND    MEND
* MACRO
         MACRO
&NAME    CUEXIT   &RC=(15)
         GBLB  &BG15                                 DEC 75
         LCLA  &B,&W
         LCLC  &Z
&NAME    DS 0H
         PUSH  PRINT
         PRINT ON
         MNOTE 'DATE OF THIS VERSION OF THE CUEXIT MACRO:16/06/77'
         POP   PRINT
         L      R13,4(13)
&Z         SETC  '&RC'
.B94     AIF   ('&Z'(1,2) NE '(R').B84
&B       SETA  K'&Z-2
&Z        SETC  '&Z'(1,1).'&Z'(3,&B)
.B84     ANOP
         AIF   ('&Z' EQ '(15)').B60
         AIF   ('&Z'(1,1) EQ '(').B61
         RETURN (14,12),RC=&Z
         AGO   .B62
.B61     ANOP
&W       SETA  K'&Z-2
&Z       SETC  '&Z'(2,&W)
         LR    R15,&Z
.B60     RETURN (14,12),RC=(15)
.B62     ANOP
         MEND
SPY56    CUENTER
         L     1,0(1)
         CLI   2(1),C' '
         BE     NONO
         CLI   2(1),C'*'
         BNE   NABEND
         NI    ABENDSW+1,X'00'
         B     NONO
NABEND   MVC    COMPARE,2(1)
         NI     LOCK+1,X'00'
         MVC   LINEWTO+64(4),=C'    '
         MVC   LINEWTO+64(1),COMPARE
NONO     L     7,16
         LA    1,128(1)
         POST  (1)
         L     7,296(7)
         L     7,240(7)
OKAYA    L     7,4(7)
         LA    9,CLASSES
NOPARM   OPEN  (INMOVE,(INPUT))
         MVI    FLAG+2,C'O'
         LA    5,WTOAREA
LOOPA    CLC   10(2,7),=X'0000'
         BE    ZZ000
         L     8,8(7)
LOOPB    CLC    4(4,8),=X'00000000'
         BE     ZZ000
         CLC    14(2,8),=X'0000'
         BE     ZZ000
         TM     19(8),X'20'
         BZ     ZZ000
LOCK     B      LOCKB
         CLC    COMPARE(1),18(8)
         BNE    ZZ000
LOCKB    MVC    11(1,5),18(8)
         MVC   0(8,5),4(8)
         XR     11,11
         MVC   FPOINTER(3),20(8)
D0000    POINT  INMOVE,FPOINTER
         READ   DECB1,SF,INMOVE,AREA,'S'
         CHECK  DECB1
         MVI    FLAG+2,C'R'
         LA     10,AREA+116
         LA     2,5
D1000    CLI    0(10),X'00'
         BE    D2000
         AH     11,2(10)
         LA     10,176(10)
         BCT    2,D1000
         CLC    AREA+32(4),=X'00000000'
         BE     D2000
         MVC    FPOINTER(3),AREA+32
         B     D0000
D2000    LTR     11,11
         BZ     ZZ000
         CVD   11,DOUBLE
         MVC   19(6,5),=X'402020202120'
         ED    19(6,5),DOUBLE+5
         OI     24(5),X'F0'
         LA     5,33(5)
ZZ000    CLC    2(2,8),=X'000000'
         BE     NOGOOD1
         L      8,0(8)
         B      LOOPB
NOGOOD1  CLC   1(3,7),=X'000000'
         BE    ENDIT
         L      7,0(7)
         B      LOOPA
ENDIT    B      FIN
FIN      CLOSE (INMOVE,)
          MVC  0(4,5),=C'****'
          LA    5,WTOAREA
         WTO    '******************************************************C
               ************'
LINEWTO  WTO    '**   N U M B E R   O F  P R I N T L I N E S  - CLASS  C
               = ALL     **'
         WTO    '**                                                    C
                         **'
         WTO    '** JOB NAME   CL       LINES        JOB NAME   CL     C
                 LINES   **'
LOOPING  CLC   0(4,5),=C'****'
         BE     RET
         CLC   33(4,5),=C'****'
         BNE   NOGOOD
         MVC   33(4,5),=C'    '
         NI    NOP+1,X'00'
NOGOOD   MVC   RITE+11(61),0(5)
RITE     WTO   '**                                                     C
                        **'
          LA    5,66(5)
NOP       B     LOOPING
RET      WTO    '******************************************************C
               ************'
ABENDSW  B    CURET
         ABEND 999,DUMP
CURET    CUEXIT RC=0
INMOVE   DCB   DDNAME=INMOVE,DSORG=PS,MACRF=RP,EODAD=FIN
KEEP    DC    C' '
FPOINTER  DC   F'0'
COMPARE  DC  C' '
TRAP     DC    C' '
P30     DC    PL2'120'
BLANK     DC    CL56' '
FLAG    DC  X'FFFF00FFFF'
KEEP1   DC      C' '
COUNT    DC   PL4'0'
        DS  0F
AREA     DC    936C' '
TABLE   DC    C'FEDCBA9876543210'
HALF    DC    H'0'
DOUBLE    DC   D'0'
CLASS   DC   C'CLASSES'
CLASSES   DC   CL40' '
       LTORG
WTOAREA  DC   CL250' '
        DC  CL250' '
        DC  CL250' '
        DC  CL250' '
        DC  CL250' '
        DC  CL250' '
        DC  CL250' '
        DC  CL250' '
         END
