         MACRO
**    AUTHORS - ICI (MOND DIVISION)
&NAME    PLIMSG &MSG
&NAME    L     2,64(12)            ADDRESS OF DIAGNOSTIC FILE BLOCK
         L     15,4(2)             ADDRESS OF TRANSMITTER ROUTINE
         LTR   15,15               DIAGNOSTIC FILE AVAILABLE ?
         BNZ   L&SYSNDX            BRANCH IF SO
         LINK  EP=IBMBEDOA         GET SYSPRINT OPENED
L&SYSNDX EQU   *
         LA    1,&MSG              MESSAGE LOCATOR/DESCRIPTOR
         LA    2,=X'80'            REQUEST COMMAND FLAG
         BALR  14,15
         MEND
