MEMBER NAME  BEGIN
         MACRO
&NAME    BEGIN &SAVE,&BASE=12,&ID=*
         LCLA  &A(15),&A0,&A1,&R1,&R2
         LCLC  &GNAME,&C1,&C(5)
&NAME    SAVE  (14,12),T,&ID       SAVE REGISTERS.
         AIF   ('&BASE' EQ ''  OR '&BASE'EQ 'NONE').C10
         BALR  &BASE(1),0          SET FIRST (OR ONLY) BASE REGISTER.
         AIF   (N'&BASE EQ 1).C1
&A0      SETA  1
&A1      SETA  2
.C18     AIF   (K'&BASE LE (&A1+8)).C2
&C(&A0)  SETC  '&BASE'(&A1,8)
&A0      SETA  &A0+1
&A1      SETA  &A1+8
         AGO   .C18
.C2      ANOP
&C(&A0)  SETC  '&BASE'(&A1,K'&BASE-&A1)
         USING *,&C(1)&C(2)&C(3)&C(4)&C(5)   DEFINE BASE REGISTER(S).
&GNAME   SETC  'IHB'.'&SYSNDX'
&C1      SETC  '&GNAME'.'A'
&GNAME   EQU   *                   DEFINE BASE REGISTER ORIGIN.
&A0      SETA  2
.C4      AIF   (&A0 GT N'&BASE).C3
&A1      SETA  &BASE(&A0)
&A(&A1)  SETA  4096*(&A0-1)
&A0      SETA  &A0+1
         AGO   .C4
.C1      USING *,&BASE(1)
         AGO   .C10
.C3      ANOP
&A0      SETA  0
&R1      SETA  1
.C11     ANOP
&R2      SETA  &R1+1
         AIF   (&A(&R1) EQ 0).C5
.C7      AIF   (&A(&R2) EQ 0).C6
&R2      SETA  &R2+1
         AIF   (&R2 LT 16).C7
.C6      AIF   (&R1 EQ (&R2-1)).C8
&A1      SETA  &R2-1
         LM    &R1,&A1,&GNAME.A+&A0     INITIALISE BASE REGISTER(S).
         AGO   .C9
.C8      L     &R1,&GNAME.A+&A0    INITIALISE BASE REGISTER(S).
.C9      ANOP
&A0      SETA  &A0+4*(&R2-&R1)
.C5      AIF   (&R2 GE 16).C10
&R1      SETA  &R2
         AGO   .C11
.C10     AIF   ('&SAVE(1)' EQ '').C12
         AIF   ('&SAVE' EQ 'NOSAVE').C13
         AIF   ('&SAVE(1)' EQ 'DYNAMIC').C14
         LA    15,&SAVE(1)         SET GR15 -> NEW SAVE AREA.
         AGO   .C15
.C12     CNOP  0,4                 FORCE ALIGNMENT ON WORD BOUNDARY.
         BAL   15,*+76             SET GR15-> NEW SAVE AREA.
         DC    18F'0'              NEW SAVE AREA.
         AGO   .C15
.C14     AIF   ('&SAVE(2)' EQ '').C20
         LA    0,&SAVE(2)(0,0)    SET GR0 = LENGTH OF DYNAMIC AREA.
         AGO   .C19
.C20     LA    0,72(0,0)           SET GR0 = LENGTH OF DYNAMIC AREA.
.C19     GETMAIN R,LV=(0)          OBTAIN DYNAMIC NEW SAVE AREA.
         LR    15,1                SET GR15 -> NEW SAVE AREA.
         LM    0,1,20(13)          RESTORE PARAMETER REGISTERS.
.C15     ST    15,8(13,0)          STORE NSA ADDR. IN LSA.
         ST    13,4(15,0)          STORE LSA ADDR.IN NSA.
         LR    13,15               SET GR13 -> NEW SAVE AREA.
         AIF   ('&SAVE(3)' EQ '').C13
         USING &SAVE(3),13         DEFINE GR13 AS BASE REGISTER.
.C13     AIF   (N'&BASE LE 1).EXIT
         BC    15,&GNAME.B         BRANCH ROUND BASE REGISTER VALUE(S).
&A0      SETA  1
.C17     AIF   (&A(&A0) EQ 0).C16
&C1      DC    A(&GNAME+&A(&A0))   BASE REGISTER VALUE.
&C1      SETC  ''
.C16     ANOP
&A0      SETA  &A0+1
         AIF   (&A0 LE 15).C17
&GNAME.B EQU   *
 AIF (&A(13)NE 0 OR &A(15)NE 0 OR(&A(1)NE 0 AND'&SAVE'EQ'DYNAMIC')).E1
.EXIT    MEXIT
.E1      MNOTE 12,'***  IHBNNN  INVALID REGISTER SPECIFIED'
         MEND
