         MACRO
&NAME    SM##  &A,&B
         SPACE
&NAME    MVC   &A.(8),MASK       * MOVE IN MASK
         ED    &A.(8),&B         * EDIT  PL4 TO CL7
         SPACE
         MEND
         EJECT
         PRINT GEN
         TITLE ' SAGUIDE -- SEQUENTIAL IEBUPDTE-STYLE OUTPUT FROM  PART*
               ITIONED INPUT '
         TITLE ' SAGUIDE -- SEQUENTIAL IEBUPDTE-STYLE OUTPUT FROM  PART*
               ITIONED INPUT '
***      SAGUIDE IS A PROGRAM WHICH READS A CARD IMAGE LIBRARY      ***
***                                                                 ***
***      AND PRODUCES UP TO EIGHT SEQUENTIAL FILES WHICH MAY BE     ***
***                                                                 ***
***      USED TO RECREATE IT, BY PASSAGE THROUGH IEBUPDTE           ***
***                                                                 ***
***      THE NUMBER OF FILES CREATED IS DETERMINED BY A PARM, WHOSE ***
***                                                                 ***
***      DEFAULT IS ONE                                             ***
***                                                                 ***
***      CONTROL CARDS MAY BE SUPPLIED, WHICH ENABLE THE USER TO    ***
***                                                                 ***
***      INCLUDE OR EXCLUDE INDIVIDUAL MEMBERS OR ENTIRE NODES      ***
***                                                                 ***
***      THE FORMAT IS AS FOLLOWS:-                                 ***
***                                                                 ***
***      COL 1 =   *          COMMENT                               ***
***                INODE=     INCLUDE ALL MEMBERS BEGINNING WITH THE***
***                           SPECIFIED NODE ( 1 NODE/CARD)         ***
***                ENODE=     EXCLUDE ALL MEMBERS BEGINNING WITH THE***
***                           SPECIFIED NODE ( 1 NODE/CARD)         ***
***                I          INCLUDE ALL MEMBERS ON THIS CARD      ***
***                           MEMBERS START IN COL 2 AND MAY BE     ***
***                           SEPARATED BY ,.:;/+-                  ***
***                           NO MEMBER MAY START IN COL 73 OR AFTER***
***                 E         EXCLUDE ALL MEMBERS ON THIS CARD      ***
***                           MEMBERS START IN COL 2 AND MAY BE     ***
***                           SEPARATED BY ,.:;/+-                  ***
***                           NO MEMBER MAY START IN COL 73 OR AFTER***
***                 C         CHANGE THE TWO-CHARACTER IEBUPDTE     ***
***                           CONTROL CARD IDENTIFIER TO THAT       ***
***                           PROVIDED IN COLS 2-3. ALSO CHANGE THE ***
***                           COMPARAND FOR EACH CARD IMAGE WRITTEN ***
***                           TO TAPE TO THE SAME CHARACTER STRING  ***
***                            -- THIS ENABLES AN 'IEBUPDTE-FORMAT' ***
***                           TAPE TO BE PRODUCED WITH CONTROL CARDS***
***                           THAT ARE UNIQUE TO THE INPUT STREAM.  ***
***                           THE GUIDE LIBRARY HAS ./ CARDS WITHIN ***
***                           ITS MEMBERS AND AN UNMODIFIED IEBUPDTE***
***                           WOULD GO MAD PROCESSING NORMAL OUTPUT ***
***                           FROM THIS PROGRAM. BY CHANGING WITH A ***
***                             C<<         CARD, AND PROVIDING A   ***
***                           COPY OF IEBUPDTE WHICH CAN COPE WITH  ***
***                           THE '<<' THE LIBRARY MAY BE RECREATED ***
***                           DURING EXECUTION THE PROGRAM REPORTS  ***
***                           ON THE NUMBER OF OCCURRENCES OF THE   ***
***                           CHOSEN CHARACTER STRING IN EACH MEMBER***
***                           IF GREATER THAN ZERO                  ***
***                                                                 ***
***            PARM INFORMATION:                                    ***
***                                                                 ***
***                                                                 ***
***                      THE NUMBER OF OUTPUT FILES IS SPECIFIED    ***
***                      AS A SINGLE EBCDIC NUMBER IN THE PARM      ***
***                      ITS VALUE MAY BE FROM 1 TO 8               ***
***                      THERE SHOULD BE A DD CARD FOR EACH         ***
***                      FILE. THE DDNAME MUST BE SYSUTN, WHEN      ***
***                      N STARTS AT 2 AND GROWS TO A MAXIMUM OF 9  ***
***                                                                 ***
***                        OMISSION OF THE PARM WRITES ONE FILE TO  ***
***                        SYSUT2                                   ***
         EJECT
SAGUIDE  BEGIN
         LR    R2,R1             * SAVE R1 BEFORE OPEN                *
         LA    R11,W2            * R11 -> ADDRESSABILITY POINT        *
      USING    W2,R11
         SPACE
       OPEN    (SYSPRINT,OUTPUT) * OPEN SYSPRINT                      *
         SPACE
         BAL   R10,PARMPROC      * PROCESS PARM FIELD - SET UP PRT LINE
         LA    R9,PARMPRT        * R9 -> PRTLINE                      *
         ZAP   LCT,P30           * SET LINE COUNT INCREMENT           *
         BAL   R10,PRT           * PRINT THE LINE                     *
         BAL   R10,OPEN          * OPEN ALL OUTPUT FILES              *
         TM    FLAGS,WARNING     * ANY FAILED ??                      *
         BO    WARYMSG           * YES - ISSUE 'BEWARE' MESSAGE       *
         LA    R9,ALLGOOD        * R9 -> GOOD MESSAGE                 *
SUMMGPRT ZAP   LCT,P30           * INDICATE 3 LINE SPACING            *
         BAL   R10,PRT           * PRINT MSG                          *
         B     ASKSYSIN          * INTERROGATE SYSIN                  *
WARYMSG  DS    0H                *                                    *
         LA    R9,SOMEBAD        * R9 -> WARNING MESSAGE              *
         B     SUMMGPRT          * PRINT IT                           *
*
ASKSYSIN DS    0H                *                                    *
         SPACE
       OPEN    (SYSIN)           * OPEN SYSIN                         *
         SPACE
         TM    SYSIN+48,X'10'    * SUCCESSFUL ??                      *
         BZ    SYSINEND          * NO - DEFAULT PROCESSING            *
*
         MVC   HD1,NEWHD1        * YES - SET UP NEW TITLE             *
         ZAP   LCT,P990          * ENSURE NEW PAGE                    *
         ZAP   PCT,P1            * RESET PAGE #                       *
         LA    R9,SYSININ        * R9 -> MESSAGE                      *
         BAL   R10,PRT           * PRINT IT                           *
         ZAP   LCT,P20           * NEXT MSG HAS 2 LINES               *
         LA    R9,CRDTITL        * R9 -> IT                           *
         BAL   R10,PRT           * PRINT IT. (LCT RESET TO P'10')     *
         LA    R9,BLANKS         * R9 -> LINE OF BLANKS               *
         BAL   R10,PRT           * PRINT IT                           *
*
GETSYSIN DS    0H
         SPACE
      GET      SYSIN,CARD        * READ A CARD                        *
         SPACE
         LA    R9,CARDPRT        * R9 -> CARD-IMAGE + MESSAGE         *
         BAL   R10,PRT           * PRINT IT ( LCT = P'10')            *
         BAL   R10,CARDPROC      * PROCESS CARD                       *
         B     GETSYSIN          * GET ANOTHER                        *
*
SYSINEND DS    0H                * EODAD ON SYSIN                     *
         LA    R9,EOSYSIN        * R9 -> END OF INPUT MSG             *
         ZAP   LCT,P30           * LCT SAYS 3 LINES                   *
         BAL   R10,PRT           * PRINT MSG                          *
         TM    FLAGS,INCL+INCNODE * INCLUDE MODE ??                   *
         BNZ   INCMODE           * YES - BRANCH                       *
         TM    FLAGS,EXCL+EXNODE * NO - EXCLUDE MODE ??               *
         BZ    NOMODE            * NO - NO MODE AT ALL                *
         LA    R9,MODE2          * YES - R9 ->  INFORMATIVE MSG       *
         ZAP   LCT,P20           * LINE COUNT SAYS 2 LINES            *
         BAL   R10,PRT           * PRINT IT                           *
         B     NOMODE            * SKIP NEXT CODE                     *
INCMODE  DS    0H                *                                    *
         LA    R9,MODE1          * R9 -> INFORMATIVE MESSAGE          *
         ZAP   LCT,P20           * LINE COUNT SAYS 2 LINES            *
         BAL   R10,PRT           * PRINT IT                           *
NOMODE   DS    0H                *                                    *
         MVC   HD1,NEWHD2        * NEW HEADING                        *
         ZAP   LINECT,P990       * ENSURE PAGE THROW                  *
         ZAP   LCT,P30           * LCT SAYS 3 LINES                   *
         ZAP   PCT,P1            * RESET PAGE COUNT                   *
         LA    R9,SUBHD1         * R9 -> SUB-HEADING                  *
         BAL   R10,PRT           * PRINT IT  (LCT RESET TO P'10')     *
         LA    R9,BLANKS         * R9 -> BLANK LINE                   *
         BAL   R10,PRT           * PRINT IT                           *
MORCARD  L     R15,=V(SPM21GET)  * R15 -> USEFUL ROUTINE              *
         LA    R1,AREA           * R1 -> INPUT AREA                   *
         BALR  R14,R15           * CALL IT                            *
         LTR   R15,R15           * EOF ??                             *
         BNZ   EOF               * YES - BRANCH                       *
         LR    R2,R0             * NO - R2 -> MEMBER NAME             *
         AP    TCT,P1            * ADD 1 TO TOTAL CARDS READ          *
         CLC   0(8,R2),LAST      * SAME AS BEFORE ??                  *
         BNE   CHG               * NO - IT IS A CHANGE                *
RESUME   TM    FLAGS,OFF         * YES - ARE WE WRITING IT ??         *
         BO    UPEXCT            * NO - INCREMENT 'EXCLUDED CARD' CT  *
         AP    CARDIN,P1         * TOTAL CARDS INCLUDED               *
         CLC   AREA(2),DOTSLASH  * YES - IS IT UPDTE CARD ??          *
         BE    CARDUPDT          * YES - BRANCH OUT                   *
CONT1    DS    0H                *                                    *
         AP    CDCT,P1           * CARDS PER MEMBER                   *
         LA    R9,AREA           * R9 -> CARD-IMAGE TO BE WRITTEN     *
         BAL   R10,WRITE         * WRITE TO FILES                     *
         B     MORCARD           * MORE CARDS PLEASE                  *
UPEXCT   DS    0H                                                     *
         AP    CARDEX,P1         * ADD 1 TO COUNT OF EXCLUDED CARDS   *
         AP    CDCT,P1           * CARDS PER MEMBER                   *
         B     MORCARD           * GO AND GET ANOTHER                 *
CARDUPDT DS    0H                *                                    *
         AP    WCT,P1            * UPDATE COUNT OF IEBUPDTE CARDS     *
         B     CONT1             * BACK TO MAINLINE                   *
EOF      DS    0H                *                                    *
         LR    R2,R15            * R2 HAS VALUE OF 4 FROM SPM21GET    *
         BAL   R10,CHG1          * PROCESS LAST MEMBER                *
         CP    WCT,P0            * ANY IEBUPDTE CARDS ??              *
         BE    EOF2              * NONE                               *
         SPACE
      SM##     WARNCT,WCT        * EBCDIC MESSAGE COUNT               *
         SPACE
         LA    R9,WARNING1       * R9 -> WARNING MESSAGE              *
         BAL   R10,PRT           * PRINT IT                           *
EOF2     DS    0H                *                                    *
         MVC   HD1,NEWHD3        * NEW HEADING FOR NEXT PAGE          *
         ZAP   PCT,P1            * PAGE COUNT RESET                   *
         ZAP   LINECT,P990       * SET LINE COUNT TO OVERFLOW         *
         ZAP   LCT,P30           * SPACE 3 LINES                      *
         LA    R9,SUBHD2         * R9 -> SUBHEADING LINE 1            *
         BAL   R10,PRT           * PRINT IT                           *
         LA    R9,SUBHD2A        * R9 -> SUBHEADING LINE 2            *
         BAL   R10,PRT           * PRINT IT                           *
         LA    R9,BLANKS         * R9 -> BLANK LINE                   *
         BAL   R10,PRT           * PRINT IT                           *
         SPACE
      SM##     TOTCOUNT,TCT      * CONVERT FIELDS TO NUMERICS - ALL   *
      SM##     MEMCOUNT,MCT      * CARDS, ALL MEMBERS                 *
      SM##     MEMINC,MINC       * MEMBERS INCLUDED                   *
      SM##     MEMEXC,MEXC       * MEMBERS EXCLUDED                   *
      SM##     CARDINC,CARDIN    * CARDS INCLUDED                     *
      SM##     CARDEXC,CARDEX    * CARDS EXCLUDED                     *
      SM##     FILEOUT,FCT       * FILES WRITTEN                      *
      SPACE
         ZAP   LCT,P30           * SPACE 3 LINES                      *
         LA    R9,SUMLINE        * R9 -> SUMMARY LINE                 *
         BAL   R10,PRT           * PRINT IT                           *
         LA    R9,EOJLINE        * R9 -> END-OF-JOB LINE              *
         ZAP   LCT,P30           * SPACE 3 LINES                      *
         BAL   R10,PRT           * PRINT IT                           *
         BAL   R10,CLOSE         * CLOSE ALL OUTPUT FILES             *
         TM    FLAGS,INCNODE+EXNODE * ANY NODES CHOSEN ??             *
         BZ    FREELIST          * NO -- TRY INDIVIDUAL NAMES         *
FREENODE DS    0H                *                                    *
         LA    R2,NODEAD         * R2 -> START OF NODE ADDRESSES      *
         CLC   0(4,R2),F0        * ANY THERE ??                       *
         BE    FREELIST          * NO - FINISHED FREEING.             *
NEXTNODE DS    0H                *                                    *
         L     R3,0(0,R2)        * YES - R3 -> NODE TABLE             *
         CLC   NODELINK(4,R3),F0 * DOES ANOTHER CHAIN ON TO THIS ONE ?*
         BE    FREEIT1           * NO - THIS IS LAST IN CHAIN ??      *
         LA    R2,NODELINK(0,R3) * YES - R2 -> CHAIN FIELD            *
         B     NEXTNODE          * KEEP SEARCHING FOR LAST TABLE IN   *
FREEIT1  DS    0H                *  THE CHAIN                         *
         LA    R4,NODELEN        * LAST TABLE REACHED. R3 -> IT       *
         SPACE
     FREEMAIN  R,LV=(4),A=(3)    * FREE UP THE TABLE                  *
         SPACE
         MVC   0(4,R2),F0        * CLEAR THE LINK FIELD               *
         B     FREENODE          * ROUND UNTIL FINISHED               *
*                                *                                    *
FREELIST DS    0H                *                                    *
         TM    FLAGS,INCL+EXCL   * ANY INDIVIDUAL MEMBERS IN LIST ??  *
         BZ    ENDFREE           * NO - FINISH                        *
LISTFREE DS    0H
         LA    R2,LISTAD         * R2 -> A(LIST TABLE)                *
         CLC   0(4,R2),F0        * DOES ONE EXIST ??                  *
         BE    ENDFREE           * NO - QUIT                          *
NEXTLIST DS    0H                *                                    *
         L     R3,0(0,R2)        * YES - R3 -> TABLE                  *
         CLC   LISTLINK(4,R3),F0 * ANOTHER CHAINGD ON ??              *
         BE    FREEIT2           * NO - FREE THIS                     *
         LA    R2,LISTLINK(0,R3) * YES - R2 -> LINK FIELD FOR NEXT    *
         B     NEXTLIST          * CONTINUE SEARCH FOR LAST IN LIST   *
FREEIT2  DS    0H                * R3 -> TABLE                        *
         LA    R4,LISTLEN        * R4 HAS LENGTH                      *
         SPACE
     FREEMAIN  R,LV=(4),A=(3)    * FREE TABLE                         *
         SPACE
         MVC   0(4,R2),F0        * CLEAR LINK FIELD                   *
         B     LISTFREE          * CARRY ON UNTIL ALL FREE            *
*                                *                                    *
ENDFREE  DS    0H                * - ALL TABLES FREED UP NOW          *
         SPACE
      CLOSE    (SYSPRINT)        * CLOSE SYSPRINT                     *
         SPACE
         TM    FLAGS,WARNING     * ANY WARNINGS ??                    *
         BO    RC4               * YES - BRANCH                       *
         LA    R15,0             * NO - SET RETURN CODE OF ZERO       *
XIT      DS    0H                                                     *
         L     R13,4(0,R13)      * R13 -> OLD SAVE AREA               *
         L     R14,12(0,R13)     * R14 -> O.S.                        *
         LM    R0,R12,20(R13)    * RESTORE REGISTERS                  *
         BR    R14               * BACK TO SCP                        *
RC4      DS    0H                *                                    *
         LA    R15,4             * SET TRIVIAL RETURN CODE            *
         B     XIT               * EXIT TIDILY                        *
         EJECT
***            CHG --  ROUTINE ENTERED WHEN MEMBER NAME CHANGES     ***
***                                                                 ***
***      ACTIONS:-  1.   PRINT SUMMARIES FOR PREVIOUS MEMBER        ***
***                 2.   TEST TO SEE IF NEW MEMBER IS INCLUDED      ***
***                 3.   IF SO, WRITE OUT IEBUPDTE CARD             ***
***                                                                 ***
***                                                                 ***
         SPACE 2
CHG      AP    MCT,P1            * ADD 1 TO MEMBER COUNT IN           *
         BAL   R10,CHG1          * PRINT SUMMARY                      *
         BAL   R10,TESTWRT       * TEST TO SEE IF WE ARE TO USE THIS 1*
         TM    FLAGS,OFF         * ARE WE ??                          *
         BO    NOUPDT            * NO - BRANCH                        *
         AP    MINC,P1           * UPDATE # OF INCLUDED MEMBERS       *
         MVC   UPDTCARD+12(8),LAST * MOVE IN MEMBER NAME              *
         LA    R9,UPDTCARD       * R9 -> CARD TO BE WRITTEN           *
         BAL   R10,WRITE         * WRITE IT                           *
         B     RESUME            * CARRY ON PROCESSING                *
NOUPDT   DS    0H                *                                    *
         AP    MEXC,P1           * UPDATE COUNT OF EXCLUDED MEMBERS   *
         B     RESUME            * CARRY ON PROCESSING                *
         EJECT
***            CHG1 -- ROUTINE TO PRINT OUT SUMMARY OF ACTIVITY     ***
***            ON LAST MEMBER                                       ***
***
***      ACTIONS:-  1.   FIRST TIME THROUGH ??
***                 2.   IF YES THEN MINIMAL PROCESSING
***                 3.   BUILD UP STATS LINE
***                 4.   ANY UPDTE CARDS ??
***                 5.   IF YES, THEN PRINT WARNING MESSAGE
***
***      REGISTERS USED:-
***
         SPACE 2
CHG1     DS    0H                *                                    *
         CLC   LAST(8),BLANKS    * FIRST TIME THROUGH ??              *
         BE    NOWARN            * YES - UPDATE 'LAST MEMBER' FIELD   *
         MVC   MNAME(8),LAST     * NO - SET UP PRINT LINE             *
         TM    FLAGS,OFF         * DID WE INCLUDE THIS ONE ??         *
         BO    EXSTAT            * NO - SET EXCLUDED STATUS           *
         MVC   STAT(14),=C'   INCLUDED   ' * YES - SET INCLUDED STATUS*
         B     CARDSUM           * SUMMARY OF NUMBERS                 *
EXSTAT   DS    0H                *                                    *
         MVC   STAT(14),=C'***EXCLUDED***' * SET EXCLUDED STATUS      *
CARDSUM  DS    0H                *                                    *
      SM##     MCDCT,CDCT        * # OF CARDS TO THIS MEMBER          *
         SPACE
         LR    R8,R10            * SAVE R10 OVER CALL TO PRINT        *
         LA    R9,PLINE          * R9 -> PRINTLINE                    *
         BAL   R10,PRT           * PRINT IT                           *
         LR    R10,R8            * RESTORE R10 OVER CALL TO PRINT     *
         ZAP   CDCT,P0           * CLEAR COUNT OF CARDS/MEMBER        *
         CP    WCT,P0            * ANY WARNINGS                       *
         BE    NOWARN            * NO - BRANCH                        *
         LR    R8,R10            * SAVE R10 OVER CALL TO PRINT        *
         SPACE
       SM##    WARNCT,WCT        * YES - EDIT COUNT OF WARNINGS       *
         SPACE
         LA    R9,WARNING1       * R9 -> WARNING MESSAGE              *
         BAL   R10,PRT           * PRINT IT                           *
         LR    R10,R8            * RESTORE R10 AFTER                  *
NOWARN   DS    0H                *                                    *
         MVC   LAST(8),0(R2)     * SET UP FIELD                       *
         ZAP   WCT,P0            * CLEAR WARNING COUNT                *
         BR    R10               * RETURN TO CALLER                   *
         EJECT
***            OPEN - ROUTINE TO OPEN UP TO 8 DCBS WITH DDNAMES     ***
***            OF  SYSUT2,SYSUT3 ...  SYSUT9                        ***
***                                                                 ***
***            ASSUMPTIONS:-  DCBADS IS TO CONTAIN ADDRESSES OF     ***
***                           SUCCESSFULLY OPENED DCBS.             ***
***                           8 DCBS ARE CONTIGUOUSLY ASSEMBLED AT  ***
***                           LABEL 'SYSUT2'                        ***
***                           'SAVPARM' CONTAINS EBCDIC PARM (1 BYTE)**
***                           R10 IS THE RETURN ADDRESS             ***
***                                                                 ***
***            REGISTERS USED:- R1,R2,R3,R4,R8,R10                  ***
***                                                                 ***
         SPACE 2
OPEN     DS    0H                *                                    *
         LR    R8,R10            * SAVE RETURN ADDRESS                *
         LA    R2,SYSUT2         * R2 -> 1ST DCB                      *
         LA    R3,DCBADS         * R3 -> DCB ADDRESS LIST             *
         XR    R4,R4             * CLEAR R4                           *
         IC    R4,SAVPARM        * PARM VALUE IN R4                   *
         N     R4,F15            * BINARY VALUE                       *
OPENLOOP MVC   DDNAME1(8),40(R2) * PRIME MESSAGES                     *
         MVC   DDNAME2(8),40(R2) *  . . . . . .                       *
         SPACE
       OPEN    ((R2),(OUTPUT))   * OPEN FILE                          *
         SPACE
         ZAP   LCT,P20           * SET UP LINE COUNT                  *
         TM    48(R2),X'10'      * OPEN ??                            *
         BZ    NOTOPEN           * NO - BAD MESSAGE                   *
         AP    FCT,P1            * ADD 1 TO COUNT OF OPEN FILES       *
         ST    R2,0(0,R3)        * YES - STORE A(DCB) IN LIST         *
         LA    R3,4(0,R3)        * UPDATE LIST POINTER                *
         LA    R9,OPENOK         * R9 -> GOOD MESSAGE                 *
OPENMSG  BAL   R10,PRT           * PRINT IT                           *
         LA    R2,DCBLEN(0,R2)   * R2 -> NEXT DCB                     *
         BCT   R4,OPENLOOP       * ROUND AGAIN                        *
         LR    R10,R8            * LOOP EXHAUSTED - RESTORE R10       *
         BR    R10               * RETURN TO CALLER                   *
NOTOPEN  DS    0H                *                                    *
         LA    R9,OPENBAD        * R9 -> BAD MESSAGE                  *
         OI    FLAGS,WARNING     * SET ON WARNING FLAG                *
         B     OPENMSG           * BACK TO MAINLINE                   *
         EJECT
***            WRITE - ROUTINE TO PUT DATA RECORDS TO EACH          ***
***            OPENED FILE                                          ***
***                                                                 ***
***            ASSUMPTIONS:-  R9 -> RECORD TO BE WRITTEN            ***
***                          'DCBADS'  CONTAINS LIST OF ADDRESSES   ***
***                           OF OPEN DCBS - DELIMITED BY A(0)      ***
***                           R10-> RETURN ADDRESS                  ***
***                                                                 ***
***            REGISTERS USED:- R14,R15,R0,R1,R2,R3                 ***
         SPACE 2
WRITE    DS    0H                *                                    *
         LA    R2,DCBADS         * R2 -> HEAD OF DCBLIST              *
WRTLOOP  L     R3,0(0,R2)        * R3 -> DCB                          *
         LTR   R3,R3             * IS IT THERE ?                      *
         BZ    WRTEND            * NO - BRANCH                        *
         SPACE
       PUT     (R3),(R9)         * YES - WRITE RECORD                 *
         SPACE
         LA    R2,4(0,R2)        * R2 -> NEXT DCB ADDRESS             *
         B     WRTLOOP           * ROUND AGAIN                        *
WRTEND   DS    0H                *                                    *
         BR    R10               * BACK TO CALLER                     *
         EJECT
***            CLOSE - ROUTINE TO CLOSE ALL OPEN DCBS               ***
***                                                                 ***
***            ASSUMPTIONS:-  'DCBADS' CONTAINS LIST OF ADDRESSES   ***
***                            OF OPEN DCBS                         ***
***                            R10 -> RETURN ADDRESS                ***
***                                                                 ***
***            REGISTERS USED:- R1,R2,R3                            ***
         SPACE 2
CLOSE    DS    0H                *                                    *
         LA    R2,DCBADS         * R2 -> HEAD OF DCB LIST             *
CLOSLOOP DS    0H                *                                    *
         L     R3,0(0,R2)        * R3 -> DCB                          *
         LTR   R3,R3             * IS ONE THERE ??                    *
         BZ    CLOSEND           * NO - BRANCH                        *
         SPACE
       CLOSE ((R3))              * YES - CLOSE IT                     *
         SPACE
         LA    R2,4(0,R2)        * R2 -> NEXT DCB ADDRESS             *
         B     CLOSLOOP          * ROUND AGAIN                        *
CLOSEND  DS    0H                *                                    *
         BR    R10               * RETURN TO CALLER                   *
         EJECT
***            PARMPROC - ROUTINE TO PROCESS THE PARM FIELD         ***
***                                                                 ***
***            ASSUMPTIONS:- .R1 -> A(PARMFIELD)                    ***
***                                                                 ***
***                          .THE PARM FIELD IS AS EXPECTED FROM    ***
***                           PROGRAM INVOCATION                    ***
***                          .R10 -> RETURN ADDRESS                 ***
***                                                                 ***
***            REGISTERS USED:-                                     ***
***                                                                 ***
         SPACE 2
PARMPROC DS    0H                *                                    *
         L     R1,0(0,R2)        * R1 -> PARM                         *
         CH    R1,H0             * NO PARM AT ALL ??                  *
         BE    NOPARM            * NO - TAKE DEFAULT                  *
         CH    R1,H1             * MORE THAN 1 CHARACTER ??           *
         BH    DUFFPARM          * YES - ERROR MESSAGE + DEFAULT      *
         CLI   2(R1),ONE         * ZERO OR LESS ??                    *
         BL    DUFFPARM          * YES - ERROR                        *
         CLI   2(R1),EIGHT       * NO - EIGHT OR GREATER ??           *
         BH    DUFFPARM          * YES - ERROR
         MVC   SAVPARM(1),2(R1)  * SAVE IN STORAGE ..                 *
PARMRET  MVC   PARMSTOR(1),SAVPARM * .. AND IN PRINTLINE              *
         BR    R10               * BACK TO CALLER                     *
NOPARM   DS    0H                *
         MVC   DEFT,DEFAULT      * MOVE IN CHAR STRING '(DEFAULT)'
         B     PARMRET           * SET DEFAULT AND RETURN
DUFFPARM DS    0H                *
         MVC   ERRPARM,PERR      * MOVE IN ERROR MESSAGE
         MVC   DEFT,DEFAULT      * MOVE IN '(DEFAULT)'
         B     PARMRET           * SET DEFAULT AND RETURN
*                                                                     *
***      'SAVPARM' IS ALREADY PRIMED WITH A DEFAULT OF '1'          ***
*                                                                     *
         EJECT
***            PRT - SUBROUTINE TO WRITE MESSAGES TO SYSPRINT       ***
***                                                                 ***
***            ASSUMPTIONS:-  R9 -> PRINTLINE                       ***
***                           'LCT' CONTAINS THE INCREMENT TO THE   ***
***                           LINE COUNT                            ***
***                           R10   CONTAINS THE RETURN ADDRESS     ***
         SPACE 2
PRT      DS    0H                *                                    *
         AP    LINECT,LCT        * INCREMENT LINE COUNT               *
         BNO   PUT               * OVERFLOW ??  NO -- BRANCH          *
         MVC   PAGENO,MASK       * YES - CONVERT PAGE NUMBER TO       *
         ED    PAGENO,PCT        *  EBCDIC                            *