          MACRO
&NAME    OUT   &CCOD
&NAME    L     13,4(13)
         MVI   16(13),X'FF'
         LM    14,12,12(13)
         AIF   (T'&CCOD EQ 'O').NOCODE
         LA    15,&CCOD
.NOCODE  ANOP
         BR    14
         MEND
