         MACRO
&NAME    IN    &REG,&PARM=
         LCLA  &N1,&DISP
         LCLC  &LASTBAS,&CSNAME
         AIF   ('&PARM' EQ '').A0
         MNOTE 'THERE IS NO NEED TO CODE PARM'
.A0      ANOP
&CSNAME  SETC  '&SYSECT'
         AIF   ('&NAME' EQ '').A1
&CSNAME  SETC  '&NAME'
&CSNAME  CSECT
.A1      ANOP
         STM   14,12,12(13)
         LR    14,13
         BALR  13,0
         USING *,13
         AIF   ('&CSNAME' EQ '').A2
         B     *+12
         DC    CL8'&CSNAME'
.A2      ANOP
         CNOP  0,4
         BAL   13,*+76
SAVE&SYSNDX DC C'SAVEHSA LSA RET EPA R0  R1  R2  R3  '
         DC    C'R4  R5  R6  R7  R8  R9  R10 R11 R12 '
         ST    14,4(13)
         ST    13,8(14)
         USING SAVE&SYSNDX,13 1ST BASE REG 13
&LASTBAS SETC  '13'
.A5      ANOP
&N1      SETA  &N1+1
         AIF   ('&REG(&N1)' EQ '').A15
         AIF   ('&REG(&N1)' EQ '13').A5
&DISP    SETA  &DISP+4094
         LA    &REG(&N1),4094(&LASTBAS)
         USING SAVE&SYSNDX+&DISP,&REG(&N1)
&LASTBAS SETC  '&REG(&N1)'
         AGO   .A5
.A15     ANOP
         MEND
