         MACRO
&NAME    FCB2  &DEFAULT=00,&LENGTH=00,&INDEX=,&L1=00,&L2=00,&L3=00,    *
               &L4=00,&L5=00,&L6=00,&L7=00,&L8=00,&L9=00,&L10=00,      *
               &L11=00,&L12=00,&L13=00,&L14=00,&L15=00,&L16=00,&L17=00,$
               &L18=00,&L19=00,&L20=00,&L21=00,&L22=00,&L23=00,&L24=00,$
               &L25=00,&L26=00,&L27=00,&L28=00,&L29=00,&L30=00,&L31=00,$
               &L32=00,&L33=00,&L34=00,&L35=00,&L36=00,&L37=00,&L38=00,$
               &L39=00,&L40=00,&L41=00,&L42=00,&L43=00,&L44=00,&L45=00,$
               &L46=00,&L47=00,&L48=00,&L49=00,&L50=00,&L51=00,&L52=00,$
               &L53=00,&L54=00,&L55=00,&L56=00,&L57=00,&L58=00,&L59=00,$
               &L60=00,&L61=00,&L62=00,&L63=00,&L64=00,&L65=00,&L66=00,$
               &L67=00,&L68=00,&L69=00,&L70=00,&L71=00,&L72=00,&L73=00,$
               &L74=00,&L75=00,&L76=00,&L77=00,&L78=00,&L79=00,&L80=00,$
               &L81=00,&L82=00,&L83=00,&L84=00,&L85=00,&L86=00,&L87=00,$
               &L88=00,&L89=00,&L90=00,&L91=00,&L92=00,&L93=00,&L94=00,$
               &L95=00,&L96=00,&L97=00,&L98=00,&L99=00,&L100=00
&NAME    CSECT
         SPACE 1
*              FOR DYNAMIC MACRO CODING AND ASSEMBLER PROGRAMMING,
*              CONTACT T.R.SAMBROOKS, WYTHENSHAWE COMPUTER CENTRE.
         SPACE 1
         DC    X'&DEFAULT'             DEFAULT/NON-DEFAULT IMAGE.
         SPACE 1
*                  DEFAULT/NON-DEFAULT IMAGE INDICATOR IS 1 BYTE.
         SPACE 1
*        1.......            0 BIT ON INDICATES DEFAULT F.C.B.
*        0.......            0 BIT OFF INDICATES NON-DEFAULT F.C.B.
*        .XXXXXXX            BITS 1 - 7 INCLUSIVE ARE RESERVED.
         SPACE 1
         DC    AL1(&LENGTH)
         SPACE 1
         AIF   (&LENGTH NE 00).RET1
         MNOTE 'DISASTER - NO F.C.B. LENGTH SPECIFIED.'
.RET1    AIF   (T'&INDEX EQ 'O').NOIND
         DC    X'&INDEX'
         SPACE 1
*                  THE INDEXING FEATURE INDICATOR IS 1 BYTE.
         SPACE 1
*        1.......            0 BIT ON INDICATES INDEX RIGHT.
*        .1......            1 BIT ON INDICATES INDEX LEFT.
*        ..X.....            2 BIT IS RESERVED.
*                            BITS 3 - 7 INCLUSIVE INDICATE THE NUMBER
*                            OF BYTES TO BE INDEXED.
*           ....1            INDEX 1  BYTE.
*           ...10            INDEX 2  BYTES.
*           ...11            INDEX 3  BYTES.
*           ..100            INDEX 4  BYTES.
*           ..101            INDEX 5  BYTES.
*           ..110            INDEX 6  BYTES.
*           ..111            INDEX 7  BYTES.
*           .1000            INDEX 8  BYTES.
*           .1001            INDEX 9  BYTES.
*           .1010            INDEX 10 BYTES.
*           .1011            INDEX 11 BYTES.
*           .1100            INDEX 12 BYTES.
*           .1101            INDEX 13 BYTES.
*           .1110            INDEX 14 BYTES.
*           .1111            INDEX 15 BYTES.
*           10000            INDEX 16 BYTES.
*                            AND ANY COMBINATION THROUGH TO,
*        ...11111            INDEX THE MAXIMUM 31 BYTES.
         SPACE 1
.NOIND   ANOP
LINE1    DC    AL1(&L1)
         SPACE 1
*                  6 OR 8 LINE PER INCH INDICATER.
         SPACE 1
*        1.......            0 BIT ON INDICATES 8 LINES PER INCH.
*        0.......            0 BIT OFF INDICATES 6 LINES PER INCH.
*        .XX.....            BITS 1 - 2 INCLUSIVE ARE RESERVED.
*        ...1....            3 BIT ON INDICATES THE END OF THE F.C.B.
*                            BITS 4 - 7 ARE USED AS CHANNEL SKIP
*                            INDICATORS.
*        .......1            SKIP TO CHANNEL 1.
*        ......10            SKIP TO CHANNEL 2.
*        ......11            SKIP TO CHANNEL 3.
*        .....100            SKIP TO CHANNEL 4.
*        .....101            SKIP TO CHANNEL 5.
*        .....110            SKIP TO CHANNEL 6.
*        .....111            SKIP TO CHANNEL 7.
*        ....1000            SKIP TO CHANNEL 8.
*        ....1001            SKIP TO CHANNEL 9.
*        ....1010            SKIP TO CHANNEL 10.
*        ....1011            SKIP TO CHANNEL 11.
*        ....1100            SKIP TO CHANNEL 12.
         SPACE 1
         AIF   (&L1 GE 16).AEND
LINE2    DC    AL1(&L2)
         AIF   (&L2 GE 16).AEND
LINE3    DC    AL1(&L3)
         AIF   (&L3 GE 16).AEND
LINE4    DC    AL1(&L4)
         AIF   (&L4 GE 16).AEND
LINE5    DC    AL1(&L5)
         AIF   (&L5 GE 16).AEND
LINE6    DC    AL1(&L6)
         AIF   (&L6 GE 16).AEND
LINE7    DC    AL1(&L7)
         AIF   (&L7 GE 16).AEND
LINE8    DC    AL1(&L8)
         AIF   (&L8 GE 16).AEND
LINE9    DC    AL1(&L9)
         AIF   (&L9 GE 16).AEND
LINE10   DC    AL1(&L10)
         AIF   (&L10 GE 16).AEND
LINE11   DC    AL1(&L11)
         AIF   (&L11 GE 16).AEND
LINE12   DC    AL1(&L12)
         AIF   (&L12 GE 16).AEND
LINE13   DC    AL1(&L13)
         AIF   (&L13 GE 16).AEND
LINE14   DC    AL1(&L14)
         AIF   (&L14 GE 16).AEND
LINE15   DC    AL1(&L15)
         AIF   (&L15 GE 16).AEND
LINE16   DC    AL1(&L16)
         AIF   (&L16 GE 16).AEND
LINE17   DC    AL1(&L17)
         AIF   (&L17 GE 16).AEND
LINE18   DC    AL1(&L18)
         AIF   (&L18 GE 16).AEND
LINE19   DC    AL1(&L19)
         AIF   (&L19 GE 16).AEND
LINE20   DC    AL1(&L20)
         AIF   (&L20 GE 16).AEND
LINE21   DC    AL1(&L21)
         AIF   (&L21 GE 16).AEND
LINE22   DC    AL1(&L22)
         AIF   (&L22 GE 16).AEND
LINE23   DC    AL1(&L23)
         AIF   (&L23 GE 16).AEND
LINE24   DC    AL1(&L24)
         AIF   (&L24 GE 16).AEND
LINE25   DC    AL1(&L25)
         AIF   (&L25 GE 16).AEND
LINE26   DC    AL1(&L26)
         AIF   (&L26 GE 16).AEND
LINE27   DC    AL1(&L27)
         AIF   (&L27 GE 16).AEND
LINE28   DC    AL1(&L28)
         AIF   (&L28 GE 16).AEND
LINE29   DC    AL1(&L29)
         AIF   (&L29 GE 16).AEND
LINE30   DC    AL1(&L30)
         AIF   (&L30 GE 16).AEND
LINE31   DC    AL1(&L31)
         AIF   (&L31 GE 16).AEND
LINE32   DC    AL1(&L32)
         AIF   (&L32 GE 16).AEND
LINE33   DC    AL1(&L33)
         AIF   (&L33 GE 16).AEND
LINE34   DC    AL1(&L34)
         AIF   (&L34 GE 16).AEND
LINE35   DC    AL1(&L35)
         AIF   (&L35 GE 16).AEND
LINE36   DC    AL1(&L36)
         AIF   (&L36 GE 16).AEND
LINE37   DC    AL1(&L37)
         AIF   (&L37 GE 16).AEND
LINE38   DC    AL1(&L38)
         AIF   (&L38 GE 16).AEND
LINE39   DC    AL1(&L39)
         AIF   (&L39 GE 16).AEND
LINE40   DC    AL1(&L40)
         AIF   (&L40 GE 16).AEND
LINE41   DC    AL1(&L41)
         AIF   (&L41 GE 16).AEND
LINE42   DC    AL1(&L42)
         AIF   (&L42 GE 16).AEND
LINE43   DC    AL1(&L43)
         AIF   (&L43 GE 16).AEND
LINE44   DC    AL1(&L44)
         AIF   (&L44 GE 16).AEND
LINE45   DC    AL1(&L45)
         AIF   (&L45 GE 16).AEND
LINE46   DC    AL1(&L46)
         AIF   (&L46 GE 16).AEND
LINE47   DC    AL1(&L47)
         AIF   (&L47 GE 16).AEND
LINE48   DC    AL1(&L48)
         AIF   (&L48 GE 16).AEND
LINE49   DC    AL1(&L49)
         AIF   (&L49 GE 16).AEND
LINE50   DC    AL1(&L50)
         AIF   (&L50 GE 16).AEND
LINE51   DC    AL1(&L51)
         AIF   (&L51 GE 16).AEND
LINE52   DC    AL1(&L52)
         AIF   (&L52 GE 16).AEND
LINE53   DC    AL1(&L53)
         AIF   (&L53 GE 16).AEND
LINE54   DC    AL1(&L54)
         AIF   (&L54 GE 16).AEND
LINE55   DC    AL1(&L55)
         AIF   (&L55 GE 16).AEND
LINE56   DC    AL1(&L56)
         AIF   (&L56 GE 16).AEND
LINE57   DC    AL1(&L57)
         AIF   (&L57 GE 16).AEND
LINE58   DC    AL1(&L58)
         AIF   (&L58 GE 16).AEND
LINE59   DC    AL1(&L59)
         AIF   (&L59 GE 16).AEND
LINE60   DC    AL1(&L60)
         AIF   (&L60 GE 16).AEND
LINE61   DC    AL1(&L61)
         AIF   (&L61 GE 16).AEND
LINE62   DC    AL1(&L62)
         AIF   (&L62 GE 16).AEND
LINE63   DC    AL1(&L63)
         AIF   (&L63 GE 16).AEND
LINE64   DC    AL1(&L64)
         AIF   (&L64 GE 16).AEND
LINE65   DC    AL1(&L65)
         AIF   (&L65 GE 16).AEND
LINE66   DC    AL1(&L66)
         AIF   (&L66 GE 16).AEND
LINE67   DC    AL1(&L67)
         AIF   (&L67 GE 16).AEND
LINE68   DC    AL1(&L68)
         AIF   (&L68 GE 16).AEND
LINE69   DC    AL1(&L69)
         AIF   (&L69 GE 16).AEND
LINE70   DC    AL1(&L70)
         AIF   (&L70 GE 16).AEND
LINE71   DC    AL1(&L71)
         AIF   (&L71 GE 16).AEND
LINE72   DC    AL1(&L72)
         AIF   (&L72 GE 16).AEND
LINE73   DC    AL1(&L73)
         AIF   (&L73 GE 16).AEND
LINE74   DC    AL1(&L74)
         AIF   (&L74 GE 16).AEND
LINE75   DC    AL1(&L75)
         AIF   (&L75 GE 16).AEND
LINE76   DC    AL1(&L76)
         AIF   (&L76 GE 16).AEND
LINE77   DC    AL1(&L77)
         AIF   (&L77 GE 16).AEND
LINE78   DC    AL1(&L78)
         AIF   (&L78 GE 16).AEND
LINE79   DC    AL1(&L79)
         AIF   (&L79 GE 16).AEND
LINE80   DC    AL1(&L80)
         AIF   (&L80 GE 16).AEND
LINE81   DC    AL1(&L81)
         AIF   (&L81 GE 16).AEND
LINE82   DC    AL1(&L82)
         AIF   (&L82 GE 16).AEND
LINE83   DC    AL1(&L83)
         AIF   (&L83 GE 16).AEND
LINE84   DC    AL1(&L84)
         AIF   (&L84 GE 16).AEND
LINE85   DC    AL1(&L85)
         AIF   (&L85 GE 16).AEND
LINE86   DC    AL1(&L86)
         AIF   (&L86 GE 16).AEND
LINE87   DC    AL1(&L87)
         AIF   (&L87 GE 16).AEND
LINE88   DC    AL1(&L88)
         AIF   (&L88 GE 16).AEND
LINE89   DC    AL1(&L89)
         AIF   (&L89 GE 16).AEND
LINE90   DC    AL1(&L90)
         AIF   (&L90 GE 16).AEND
LINE91   DC    AL1(&L91)
         AIF   (&L91 GE 16).AEND
LINE92   DC    AL1(&L92)
         AIF   (&L92 GE 16).AEND
LINE93   DC    AL1(&L93)
         AIF   (&L93 GE 16).AEND
LINE94   DC    AL1(&L94)
         AIF   (&L94 GE 16).AEND
LINE95   DC    AL1(&L95)
         AIF   (&L95 GE 16).AEND
LINE96   DC    AL1(&L96)
         AIF   (&L96 GE 16).AEND
LINE97   DC    AL1(&L97)
         AIF   (&L97 GE 16).AEND
LINE98   DC    AL1(&L98)
         AIF   (&L98 GE 16).AEND
LINE99   DC    AL1(&L99)
         AIF   (&L99 GE 16).AEND
LINE100  DC    AL1(&L100)
         AIF   (&L100 GE 16).AEND
         MNOTE 'DISASTER, - NO F.C.B. END MARKER ENCOUNTERED.'
         AGO   .AEND
.AEND    ANOP
         MEND
