MEMBER NAME  PINIT
         MACRO
&NAME    PINIT &SAVAREA,&REGBACK=14,&RC=0
         LCLC  &C
&C       SETC  '&RC'
&NAME    L     13,&SAVAREA+4           LOAD R13 WITH RETURN SAVE ADDR
         LM    &REGBACK,12,12(13)      RESTORE ALL REGISTERS EXCEPT R13
         AIF   (&C EQ 0).M1
         AIF   (&C EQ 4).M2
         AIF   (&C EQ 8).M3
.M1      LA    15,00(0,0)              LOAD R15 WITH RETURN CODE OF 0
         AGO   .M4
.M2      LA    15,04(0,0)              LOAD R15 WITH RETURN CODE OF 4
         AGO   .M4
.M3      LA    15,08(0,0)              LOAD R15 WITH RETURN CODE OF 8
         AGO   .M4
.M4      BR    &REGBACK                RETURN VIA REGISTER 14
         MEND
