//SYSTGTFA JOB (9029,270),TAUCHNITZ
//GTFTRACE EXEC ATASMHCL
//C.SYSLIB DD  DSN=SYS1.MACLIB,DISP=SHR
//         DD  DSN=SYS1.MACLIB,DISP=SHR
//         DD  DSN=SYS1.AMODGEN,DISP=SHR,VOL=SER=DLIB01,UNIT=3330
//C.SYSIN  DD  *
GTFTRAZE TITLE 'SVC''S 06,07,08 NACH HAEUFIGKEIT DER MODULNAMEN, EXCP''*
               S UND -ZEITEN JE EINHEIT'
***********************************************************************
*                                                                     *
*                                                                     *
********************  G  T  F  T  R  A  Z  E  *************************
*                                                                     *
*                                                                     *
* DIESES PROGRAMM 'GTFTRAZE' BASIERT AUF DER IDEE DES 'GTFTRC' VON    *
* W. PENNINGTON. DIESES KONNTE ALLERDINGS NUR DIE SVC'S 6,7 + 8 AUS-  *
* WERTEN. DAS HIER VORLIEGENDE 'GTFTRAZE' ERMITTELT DARUEBERHINAUS    *
* DIE DIFFERENZ-ZEIT ZWISCHEN SIO UND I/O-INTERRUPT FUER EINE EINHEIT.*
* DIESE ZEITEN WEREDN AUFSUMMIERT UND EREGBEN AM ENDE EINE DURCH-     *
* SCHNITTSZEIT JE EINHEIT. DEVICEGRUPPEN KOENNEN AUCH GEMITTELT       *
* WERDEN, ZB *TAPPEN* ODER *DISKEN*. ZUGUTERLETZT WERDEN NOCH DIE     *
* TYPEN DER EINGELESENEN GTF-SAETZE AUFGEZAEHLT. NACH DEN BEKANNTEN   *
* KRITERIEN NICHT ZUORDNUNGSFAEHIGE SAETZE WERDEN UEBER SYSUT2 ALS    *
* 'FALSCHE SAETZE' WIEDER AUSGEGEBEN.                                 *
*                                                                     *
* PROGRAMMIERT UND GETESTET VON A.H.TAUCHNITZ, EINGESETZT IM MAERZ 74 *
* BEI DER ETERNIT AG BERLIN.                                          *
*                                                                     *
*                                                                     *
***********************************************************************
         EJECT
         MACRO
&NAME    CONSOR &FELD,&LNG
         GBLB  &PRO,&I
         LCLA  &L2
         LCLC  &LTYP
         AIF   (&PRO).OK
         MNOTE *,'OHNE PROGR KANN CONSOR NICHT GENERIERT WERDEN.'
         MEXIT
.OK      ANOP
         AIF   (&I).M1
&NAME    B     WTOZZZZZ
         CNOP  0,4
WTOXXXXX DS    F
         ST    R14,0(R15)
         CNOP  0,4
         BAL   R1,122(R15) ;      BRANCH AROUND MESSAGE
         DC    AL2(109) ;         MESSAGE LENGTH
         DC    X'0000' ;          MCSFLAGS FIELD
         DC    CL105' ' ;         MESSAGE
         DS    0H
         SVC   35 ;               ISSUE WTO-SVC
         CNOP  2,4
         BALR  R15,R0
         B     8(R15)
         DC    A(WTOXXXXX)
         L     R14,4(R15)
         L     R14,0(R14)
         BR    R14
WTOZZZZZ EQU   *
.M1      ANOP
&LTYP    SETC  'L'''
         AIF   ('&LNG' EQ '').M2
&L2      SETA  &LNG+4
         AGO   .M3
.M2      ANOP
&L2      SETA  L'&FELD
&L2      SETA  &L2+4
.M3      ANOP
         AIF   (&L2 LE 109).NOGT105
         MNOTE 4,'MESSAGE LAENGER ALS 105 STELLEN NICHT ERLAUBT'
&L2      SETA 109
.NOGT105 ANOP
         CNOP  2,4
         AIF   (&I).I
         BALR  R15,R0
         AGO   .NOTI
.I       ANOP
&NAME    BALR  R15,R0
.NOTI    ANOP
&I       SETB  1
         B     8(R15)
         DC    A(WTOXXXXX)
         L     R15,4(R15)
         AIF   ('&LNG' NE '').M4
         AIF   (&L2 LE 109).M31
         MVC   16(105,R15),&FELD
         AGO   .M5
.M31     ANOP
         MVC   16(&LTYP&FELD,R15),&FELD
         AGO   .M5
.M4      ANOP
         AIF   (&L2 LE 109).M41
         MVC   16(105,R15),&FELD
         AGO   .M5
.M41     ANOP
         MVC   16(&LNG,R15),&FELD
.M5      ANOP
         MVC   12(2,R15),=H'&L2'
         BAL   R14,4(R15)
         MEND
         EJECT
         MACRO
&NAME    CVDEZ &D,&G
         CNOP  0,4
&NAME    BAL   1,*+12
         DC    A(&G,&D)
         L     15,=V(CVDZ)
         BALR  14,15
         MEND
         EJECT
         MACRO
&NAME    CVGLEIT &G,&D
         CNOP  0,4
&NAME    BAL   1,*+12
         DC    A(&D,&G)
         L     15,=V(CVGK)
         BALR  14,15
         MEND
         EJECT
         MACRO
&NAME    CVTAB &LIST,&TYPE=Z
         LCLA  &COUNT,&N,&INDEX
         LCLC  &L
&COUNT   SETA  N'&LIST/2
&N       SETA  &N+1
         AIF   ('&TYPE' EQ 'Z').ZONED
         AIF   ('&TYPE' EQ 'P').PACKED
         MNOTE 8,'TYPE PARAMETER IST FALSCH ... KEINE GENERIERUNG'
         MEXIT
.PACKED  ANOP
&INDEX   SETA  6
.ZONED   ANOP
         CNOP  0,4
&NAME    DC    AL1(&COUNT)
         DC    AL3(0)
.LOOP    ANOP
&L       SETC  'L'''
         DC    AL1(&L&LIST(&N))
         DC    AL3(&LIST(&N))
         DC    AL1(&LIST(&N+1))
         DC    AL3(&INDEX)
&COUNT   SETA  &COUNT-1
&N       SETA  &N+2
         AIF   (&COUNT GT 0).LOOP
         MEXIT
         MEND
         EJECT
         MACRO
&NAME    EOJ   &RC=O
*********************************  E O J - R E T U R N ****************
         GBLB  &PRO
         AIF   (&PRO).EOJ
         MNOTE 12,'OHNE PROGR KANN EOJ NICHT GENERIERT WERDEN'
         MEXIT
.EOJ     ANOP
         AIF   ('&RC' EQ 'O').NORC
         AIF   ('&RC'(1,1) NE '(').DIRECT
.REG1    ANOP
         AIF   ('&RC(1)' NE '15' AND '&RC(1)' NE 'R15').NO15
&NAME    ST    R15,R&SYSNDX
         AGO   .ALL1
.NORC    ANOP
.DIRECT  ANOP
&NAME    L     R1,108(R3)
         AGO   .ALL2
.ALL1    ANOP
         L     R1,108(R3)
.ALL2    ANOP
         SVC   14
         CLI   15(R3),C'R'
         BNE   R&SYSNDX+4
         LOAD  EP=EOJ
         LR    R15,R0
         CNOP  0,4
         BAL   R1,*+8
         DC    A(R&SYSNDX)
         BALR  R14,R15
         DS    0F
         AIF   ('&RC' NE 'O').NOO
         MNOTE 1,'WARUM IST KEIN RC GESETZT WORDEN'
R&SYSNDX DC    AL1(128),AL3(0)
         L     R13,32(R3)
         LM    R14,R12,12(R13)
         BR    R14
         MEXIT
.NOO     ANOP
         AIF   ('&RC'(1,1) EQ '(').REG2
R&SYSNDX DC    AL1(0),AL3(&RC)
         L     R13,32(R3)
         LM    R14,R12,12(R13)
         LA    R15,&RC
         BR    R14
         MEXIT
.REG2    ANOP
         AIF   ('&RC(1)' NE '15' AND '&RC(1)' NE 'R15').NO15
R&SYSNDX DC    AL1(0),AL3(0)
         L     R13,32(R3)
         L     R14,12(R13)
         L     R15,R&SYSNDX
         LM    R0,R12,20(R13)
         BR    R14
         MEXIT
.NO15    ANOP
         IHBERMAC 61,,&RC
         MEND
         EJECT
         MACRO
&NAME    FILL  &P1,&P2,&P3
         GBLC  &CG1,&CG2
         LCLA  &AL1,&AL2
 AIF ('&P1' EQ '').A
 AIF ('&P2' NE '').B
.A MNOTE 'PARAMETER FEHLEN'
 MEXIT
.B AIF ('&P3' EQ '').C
&CG1 SETC '&P3.#'(1,2)
 AIF ('&CG1' EQ 'X''').BB
&CG2 SETC '&CG1'(2,1)
 AIF ('&CG2' EQ '#').BBB
 MNOTE 'PARAMETER 3 UNGUELTIG'
 MEXIT
.BB ANOP
&NAME    MVI   &P1,&P3
 AGO .D
.BBB ANOP
&NAME    MVI   &P1,C'&P3'
 AGO .D
.C ANOP
&NAME    MVI   &P1,C' '
.D AIF (&P2 EQ 1).G
&AL1 SETA 1
&AL2 SETA &P2-1
 AIF (&AL2 LE 256).F
.E       MVC   &P1+&AL1.(256),&P1
&AL1 SETA &AL1+256
&AL2 SETA &P2-&AL1
 AIFB (&AL2 GT 256).E
.F       MVC   &P1+&AL1.(&AL2),&P1
.G MEND
         EJECT
         MACRO
&NAME    PARM
         LCLA  &ANF,&EOP,&EPARM,&GLEICH,&WERT,&STERN,&LWERT,&L1,&L2
         LCLC  &DAT1,&DAT2,&DAT3,&DAT4,&X
         LCLC  &TEXT1,&TEXT2,&TEXT3,&TEXT4,&TEXT5
         AIF   ('SYSLIST(1)' NE '').MITOP1
         MNOTE *,'OHNE PARAMETER KEINE GENERIERUNG'
         MEXIT
.MITOP1  ANOP
&X       SETC  '&SYSNDX'
***********************************************************************
&NAME    B     LINKPARM
P1&X     EQU   *
&EPARM   SETA  K'&SYSLIST(1)
&ANF     SETA  1
.SCH1    ANOP
&ANF     SETA  &ANF+1
&GLEICH  SETA  &ANF+1
&WERT    SETA  &GLEICH+1
&EOP     SETA  &WERT+1
         AIF   ('&SYSLIST(1)'(&GLEICH,1) NE '=').FEHLER1
.SCH2    ANOP
         AIF   ('&SYSLIST(1)'(&EOP,1) EQ ')'                           *
               OR '&SYSLIST(1)'(&EOP,1) EQ ',').SCH3
&EOP     SETA  &EOP+1
         AIF   (&EOP GT &EPARM).FEHLER2
         AGO   .SCH2
.SCH3    ANOP
&STERN   SETA  &EOP-1
&DAT1    SETC  '&SYSLIST(1)'(&ANF,2)
&DAT2    SETC  '&SYSLIST(1)'(&ANF,1)
&LWERT   SETA  &STERN-&WERT
         AIF   ('&SYSLIST(1)'(&STERN,1) EQ '*').STAR
         AIF   ('&SYSLIST(1)'(&STERN,1) EQ '$').DOLLAR
         AIF   ('&SYSLIST(1)'(&STERN,1) EQ '%').PRZENT
&DAT3    SETC  ' '
&TEXT1   SETC  'WAHLWEIS'
&TEXT2   SETC  'E    MIT'
&TEXT3   SETC  ' FESTER '
&TEXT4   SETC  '   LAENG'
&TEXT5   SETC  'E       '
&STERN   SETA  &EOP
&LWERT   SETA  &STERN-&WERT
         AGO   .ALWAYS
.STAR    ANOP
&DAT3    SETC  '*'
&TEXT1   SETC  'ERFORDER'
&TEXT2   SETC  'LICH MIT'
&TEXT3   SETC  ' FESTER '
&TEXT4   SETC  '   LAENG'
&TEXT5   SETC  'E       '
         AGO   .ALWAYS
.DOLLAR  ANOP
&DAT3    SETC  '$'
&TEXT1   SETC  'WAHLWEIS'
&TEXT2   SETC  'E    MIT'
&TEXT3   SETC  ' VARIABL'
&TEXT4   SETC  'ER LAENG'
&TEXT5   SETC  'E       '
         AGO   .ALWAYS
.PRZENT  ANOP
&DAT3    SETC  '%'
&TEXT1   SETC  'ERFORDER'
&TEXT2   SETC  'LICH MIT'
&TEXT3   SETC  ' VARIABL'
&TEXT4   SETC  'ER LAENG'
&TEXT5   SETC  'E       '
.ALWAYS  ANOP
         AIF   (&LWERT LE 0).FEHLER3
&DAT4    SETC  '&SYSLIST(1)'(&WERT,&LWERT)
&L2      SETA  &DAT4
&L1      SETA  &L2+2
         DC    AL1(&L1)
         DC    C'&DAT1'
PARM&DAT2 DC CL&L2.'&DAT3'
         MNOTE *,'           &TEXT1&TEXT2&TEXT3&TEXT4&TEXT5'
         AIF   (&EOP EQ &EPARM).PARAEND
&ANF     SETA  &EOP
         AGO   .SCH1
.FEHLER1 MNOTE 1,'PARAMETER FALSCH'
         MEXIT
.FEHLER2 MNOTE 2,'PARAMETER FALSCH'
         MEXIT
.FEHLER3 MNOTE 3,'PARAMETER FALSCH'
         MEXIT
.PARAEND ANOP
         DC    C'@'
LINKPARM LINK EP=PARM,PARAM=(PARA0001,P1&X)
***********************************************************************
         EJECT
         MEND
         EJECT
         MACRO
&NAME    PROGR &P1,&P2
****************************  E T E R N I T  **************************
*                                                                     *
*                                 PROGR OS-VERSION                    *
*                                                                     *
***********************************************************************
*                                 J.TOUCHET   AM 25.01.71             *
*                                 A.TAUCHNITZ 25.04.74 LEVEL 002      *
***********************************************************************
         GBLB  &PRO
         GBLC  &SAVE
         LCLA  &AL6,&AL7,&AL8,&AL9,&AL10,&K,&K1,&K2
         LCLC  &R,&X,&DATA,&CODE,&APOS
         LCLB  &FEHL,&SHORT
         AIF   (NOT &PRO).YES
.YES     ANOP
&X       SETC  '&SYSNDX'
         AIF   ('&NAME' NE '').A
         MNOTE 'NAME FEHLT'
&FEHL    SETB  1
.A       AIF   (T'&P1 EQ 'N').B
         MNOTE 'PARAMETER 1 FEHLT ODER NICHT NUMERISCH'
.GENEND  MEXIT
.B       AIF   (&FEHL).GENEND
&SAVE    SETC  'SAVE&X'
&R       SETC  'R'
***********************************************************************
*                                 * SAVEROUT, BALR, USING *           *
***********************************************************************
&APOS    SETC  ''''
&CODE    SETC  'F'''
&K2      SETA  8
&DATA    SETC  '00000000'
         AIF   ('&P2' NE 'SHORT').LONG1
&SHORT   SETB  1
         AGO   .ZERO
.LONG1   AIF   ('&P2' EQ '').ZERO
&K       SETA  K'&P2
         AIF   ('&P2'(1,1) NE 'C').NOC
&CODE    SETC  'F'''
         AGO   .C
.NOC     AIF   ('&P2'(1,1) NE 'X').NOCNOX
&CODE    SETC  'X'''
         AIF   (&K LT 4 OR &K GT 9).FEHLER
         AGO   .C1
.C       AIF   (&K LT 4 OR &K GT 11).FEHLER
.C1      AIF   ('&P2'(2,1) NE '''' OR '&P2'(&K,1) NE '''').FEHLER
&K1      SETA  &K-3
&DATA    SETC  '&P2'(3,&K1)
&K2      SETA  &K2-&K1
.LOOP    AIF   (&K2  EQ 0).ENDSYNT
&DATA    SETC  '0&DATA'
&K2      SETA  &K2-1
         AGO   .LOOP
.NOCNOX  AIF   (&K GT 8).FEHLER
&CODE    SETC  'F'''
&DATA    SETC  '&P2'
&K2      SETA  &K2-&K
         AGO   .LOOP
.ENDSYNT AIF   ('&CODE'(1,1) NE 'F').NOF
&AL6     SETA  &DATA
&AL7     SETA  2097152
.LOOP1   AIF   (&AL6 EQ 0 AND &AL7 EQ 8).ZERO
         AIF   (&AL6 EQ &AL7).ZERO
         AIF   (&AL6 GT &AL7).SUBSTR
         AIF   (&AL7 EQ 8).FEHLER1
&AL7     SETA  &AL7/8
         AGO   .LOOP1
.SUBSTR  ANOP
&AL6     SETA  &AL6-&AL7
         AGO   .LOOP1
.FEHLER1 MNOTE *,'START-ADRESSE NICHT OHNE REST DURCH 8 TEILBAR. START *
               0 WIRD GENERIERT'
         AGO   .SETZERO
.NOF     AIF   ('&DATA'(8,1) NE '0' AND '&DATA'(8,1) NE '8').FEHLER1
.ZERO    AIF   ('&DATA' NE '00000000').NOZERO
&NAME    CSECT
         AGO   .ENTRY
.NOZERO  ANOP
         AIF   ('&CODE'(1,1) NE 'F').NOF1
&NAME    START &DATA
         AGO   .ENTRY
.NOF1    ANOP
&NAME    START &P2
         AGO   .ENTRY
.FEHLER  MNOTE *,'SYNTAX VON PARAMETER 2 IST FALSCH ... START 0 WIRD GE-
               NERIERT'
.SETZERO ANOP
&CODE    SETC  'F'''
&DATA    SETC  '00000000'
         AGO   .ZERO
.ENTRY   ANOP
         ENTRY &NAME
         B     16(0,R15) ;        BRANCH AROUND ID
         DC    AL1(11) ;          LENGTH OF IDENTIFIER
         DC    CL11'&NAME' ;      IDENTIFIER
         AIF   (&SHORT).SHORT0
         ORG   *-1
         DC    C'R'     ROOT PHASE
.SHORT0  ANOP
         STM   R14,R12,12(R13) ;  SAVE REGISTERS
         USING &NAME,R3 ;        R3 IST ERSTES BASIS REGISTER
         LR    R3,R15
         LR    R11,R13
         AIF   (&SHORT).SHORT1
         BAL   R13,120(R3)
         AGO   .LONG2
.SHORT1  BAL   R13,112(R3)
.LONG2   ANOP
SAVE&X   DS    18F ;              SAVEAREA
VF&X     DC    &CODE&DATA&APOS DIFFERENZ ZWI. ASSEMBLER UND SPEICHER
PARA&X   DS    F
PICA&X   DS    F
         DC    A(LEVEL-LEVEL)
         ORG   *-4
         AIF   (&SHORT).SHORT2
DATUM    DC    CL8'0' ;           TT.MM.JJ
TEST&X   B     *+10
         DC    X'0700'
         B     REP&X-4
.SHORT2  ANOP
         ST    R13,8(R11) ;       SAVEAREAS
         ST    R11,4(R13) ;                 VERKETTEN
         NOP   *+20
         OI    *-3,X'F0'
         LA    R4,&NAME
         S     R4,VF&X
         ST    R4,VF&X
&AL8     SETA  &P1+4095
&AL8     SETA  &AL8/4096+2
         AIF   (&AL8 LE 3).K
         AIF   (&AL8 LE 15).G
&AL8     SETA  15
.G       ANOP
&AL6     SETA  (&AL8-3)*4+4
         LA    &R&AL8,4095
&AL6     SETA  &AL6-4
&AL9     SETA  3
.J       ANOP
&AL9     SETA  &AL9+1
&AL10    SETA  &AL10+4096
         USING &NAME+&AL10,&AL9 ;    NOCH EIN USING,NACH WUNSCH
         AIF   (&AL9 LT &AL8).J
&AL7     SETA  2
&AL9     SETA  3
.F       ANOP
&AL7     SETA  &AL7+1
&AL9     SETA  &AL9+1
         LA    &R&AL9,1(&R&AL8,&R&AL7) ;      BASISREGISTER LADEN
         AIF   (&AL9 LT &AL8).F
.K       ANOP
         ST    R1,PARA&X
         AIF   (&PRO).NOEQU
&PRO     SETB  1
***********************************************************************
*                                 *** REGISTER EQUATEN ***            *
***********************************************************************
R0       EQU   0
R1       EQU   1
R2       EQU   2
R3       EQU   3
R4       EQU   4
R5       EQU   5
R6       EQU   6
R7       EQU   7
R8       EQU   8
R9       EQU   9
R10      EQU   10
R11      EQU   11
R12      EQU   12
R13      EQU   13
R14      EQU   14
R15      EQU   15
FPR0     EQU   0
FPR2     EQU   2
FPR4     EQU   4
FPR6     EQU   6
.NOEQU   ANOP
         AIF   (&SHORT).SHORT3
         NOP   FEHL&X
         OI    *-3,X'F0'
***********************************************************************
*                                 *** DATUM ***                       *
***********************************************************************
         LINK  EP=DATE,PARAM=DATUM
***********************************************************************
*                                 *** JOB-NAME,JOBSTEP-NAME,DATUM *** *
***********************************************************************
         L     R1,16 ;            ADR VON CVT AUS LOC HEX 10
         L     R1,0(R1) ;         ADR VON TCB DW IN R1 LADEN
         L     R1,4(R1) ;         ADR DES LAUFDN. TCB IN R1 LADEN
         L     R1,12(R1) ;        ADR DES TIOT AUS TCB IN R1 LADEN
         MVC   DAT5&X+9(8),0(R1) ;JOB-NAME
         MVC   DAT5&X+30(8),8(R1) JOBSTEP- ODER PROCSTEP-NAME
         MVC   DAT5&X+45(4),LEVEL LEVEL-NR
         MVC   DAT5&X+50(8),DATUM  TAGESDATUM
         CLC   8(4,R1),=C'TEST'     FRAGEN OB TEST ERWUENSCHT IST
         BNE   *+8
         NI    TEST&X+4,X'00' ;   TEST ANFORDERUNG WEICHE
         CLC   8(3,R1),=C'REP'
         BNE   *+8
         NI    REP&X+1,X'0F'
         CONSOR DAT5&X,58
         XC    DAT5&X,DAT5&X
         MVC   DAT5&X.(L'NAME),NAME
         CONSOR DAT5&X,105
         XC    DAT5&X,DAT5&X
         B     FEHL&X
DAT5&X   DC    C'JOB-NAME XXXXXXXX   STEP-NAME          LEVEL XXXX TT.M'
               M.JJ                                               '
.SHORT3  ANOP
FEHL&X   NOP   BAL2&X
         OI    *-3,240
         LOAD  EP=CHECKRT
         CNOP  0,4
         ST    R0,*+8
BAL2&X   BAL   R2,*+8
         DC    F'0'
         L     R2,0(R2)
         SPIE  (2),((1,15))
         ST    R1,PICA&X
         AIF   (&SHORT).SHORT4
         B     TEST&X+4
         NI    *-3,X'0F'
REP&X    B     NREP&X
         OI    *-3,X'F0'
         LINK  EP=REPROUT
NREP&X   EQU   *
.SHORT4  ANOP
         L     R1,PARA&X
***********************************************************************
         EJECT
         MEND
         EJECT
         MACRO
&NAME    RAUF  &R,&WOHIN1
         GBLB  &TRTTAB
         LCLC  &WOHIN
&WOHIN   SETC  '&WOHIN1'
&NAME    ST    &R,FW&SYSNDX
         MVC   F&SYSNDX,FW&SYSNDX
         UNPK  N&SYSNDX,F&SYSNDX
         TR    N&SYSNDX,TRTTAB-240
         MVC   &WOHIN+0(L'N&SYSNDX-1),N&SYSNDX
         B     END&SYSNDX
FW&SYSNDX  DS  F
         DS    CL1
F&SYSNDX DS    0CL5
N&SYSNDX DS    CL9
         AIFB  (&TRTTAB).END
&TRTTAB  SETB  1
         DS    CL240
TRTTAB   DC    X'F0F1F2F3F4F5F6F7F8F9C1C2C3C4C5C6'
.END     ANOP
END&SYSNDX EQU *
         MEND
         EJECT
         MACRO
&NAME    VERTEIL &LINECNT=48,&TEXT=,&DCBNAME=,&CODE=M
         LCLA  &LIN,&CC
         LCLC  &X
         LCLB  &FEHL,&TEXTR,&DCBR
&X       SETC  '&SYSNDX'
         AIF   ('&LINECNT' LE '48').LE48
&FEHL    SETB  (1)
         MNOTE 1,'LINECNT MUSS KLEINER 49 SEIN'
.LE48    ANOP
         AIF   ('&DCBNAME' NE '').WITHDCB
&FEHL    SETB  (1)
         MNOTE 2,'OHNE DCBNAME GEHT ES EBEN AUCH NICHT'
.WITHDCB ANOP
         AIF   ('&TEXT' NE '').TEXTJA
&FEHL    SETB  (1)
         MNOTE 3,'TEXT MUSS AUCH ANGEGEBEN WERDEN'
.TEXTJA  ANOP
         AIF   ('&CODE' EQ 'A' OR '&CODE' EQ 'M').CODEOK
         MNOTE 5,'CODE IST FALSCH. M WIRD GENERIERT'
.CODEOK  ANOP
         AIF   (NOT &FEHL).PARAOK
         MNOTE *,'BITTE KORRIGIEREN'
         MEXIT
.PARAOK  ANOP
         AIF   ('&CODE' EQ 'A').A
&CC      SETA  128
         AGO   .OVERA
.A       ANOP
&CC      SETA  192
.OVERA   ANOP
         AIF   ('&TEXT'(1,1) NE '(').NOR1
&TEXTR   SETB  (1)
.NOR1    ANOP
         AIF   ('&DCBNAME'(1,1) NE '(').NOR2
&DCBR    SETB  (1)
.NOR2    ANOP
&LIN     SETA  &LINECNT-5
         CNOP  0,4
&NAME    B     *+12
PARM&X   DC    AL1(&LIN)
         DC    AL3(&TEXT)
         DC    AL1(&CC)
         DC    AL3(&DCBNAME)
         AIF   (NOT &TEXTR).NOR3
         ST    &TEXT(1),PARM&X
         MVI   PARM&X,&LIN
.NOR3    ANOP
         AIF   (NOT &DCBR).NOR4
         ST    &DCBNAME(1),PARM&X+4
         MVI   PARM&X+4,&CC
.NOR4    LINK  EP=XXXAVRTL,PARAM=PARM&X
         MEND
         MACRO
&FOLGE SORTBIN &TABADDR=,&TENDCHA=,&FELDLAE=,&BEGDISP=,&FOLG=
         LCLB  &FEHL
         LCLC  &FORME
*                  TOUCHET AUCH JACOB GENANNT,SEIN SORT MACRO
         AIF   ('&TABADDR' NE '').OPER1
         MNOTE 1,'TABADDR NICHT VORHANDEN'
&FEHL    SETB  (1)
.OPER1   AIF   ('&TENDCHA' NE '').OPER2
         MNOTE 2,'TENDCHA NICHT VORHANDEN'
&FEHL    SETB  (1)
.OPER2   AIF   ('&FELDLAE' NE '').OPER4
         MNOTE 3,'FELDLAE NICHT VORHANDEN'
&FEHL    SETB  (1)
.OPER4   AIF   ('&BEGDISP' NE '').OPER5
         MNOTE 5,'BEGDISP NICHT VORHANDEN'
.FEHLER  MNOTE *,'GENERIERUNG ABGEBROCHEN'
         MEXIT
.OPER5   AIF   (&FEHL).FEHLER
         AIF   ('&FOLG' EQ 'D').SETLOW
         AIF   ('&FOLG' EQ 'A').SETHIGH
         MNOTE 6,'FOLGEFORME NICHT VORHANDEN,A ASSUMED'
.SETHIGH ANOP
&FORME   SETC  'H'
         AGO   .WEITER
.SETLOW  ANOP
&FORME   SETC  'L'
.* WENN ALLE OPERANDEN VORHANDEN SIND * * *
.WEITER  ANOP
         CNOP  0,4
&FOLGE   STM   4,8,K&SYSNDX
         STM   14,15,K&SYSNDX+20
         LA    6,&TABADDR
         LA    15,AST&SYSNDX
         L     14,AST&SYSNDX
         SR    15,14
         A     15,VUNT&SYSNDX
         BALR  14,15
UNT&SYSNDX   CSECT
         BALR  15,0
         USING *,15
G&SYSNDX LR    4,6
D&SYSNDX LA    5,&FELDLAE.(4)
A&SYSNDX CLI   0(5),C'&TENDCHA'
         BE    L&SYSNDX
         L     7,&BEGDISP.(4)
         L     8,&BEGDISP.(5)
         CR    7,8
         B&FORME C&SYSNDX
E&SYSNDX LA    5,&FELDLAE.(5)
         B     A&SYSNDX
C&SYSNDX LR    4,5
         B     D&SYSNDX
L&SYSNDX CLC   0(&FELDLAE,4),0(6)
         BE    F&SYSNDX
M&SYSNDX XC    0(&FELDLAE,6),0(4)
         XC    0(&FELDLAE,4),0(6)
         EX    0,M&SYSNDX
F&SYSNDX LA    6,&FELDLAE.(6)
         CLI   0(6),C'&TENDCHA'
         BE    36(14)
         B     G&SYSNDX
&SYSECT   CSECT
         DROP  15
K&SYSNDX NOP   *   SAVE 4
         NOP   *   SAVE 5
         NOP   *   SAVE 6
         NOP   *   SAVE 7
         NOP   *   SAVE 8
         NOP   *   SAVE 14
         NOP   *   SAVE 15
AST&SYSNDX  DC A(*)
VUNT&SYSNDX  DC V(UNT&SYSNDX)
         LM    4,8,0(14)
         LM    14,15,20(14)
         MEND
         MACRO
&FOLGE SORTDEZ &TABADDR=,&TENDCHA=,&FELDLAE=,&BEGLAE=,&BEGDISP=,       *
               &FOLG=
         LCLB  &FEHL
         LCLC  &FORME
*                  TOUCHET AUCH JACOB GENANNT,SEIN SORT MACRO
         AIF   ('&TABADDR' NE '').OPER1
         MNOTE 1,'TABADDR NICHT VORHANDEN'
&FEHL    SETB  (1)
.OPER1   AIF   ('&TENDCHA' NE '').OPER2
         MNOTE 2,'TENDCHA NICHT VORHANDEN'
&FEHL    SETB  (1)
.OPER2   AIF   ('&FELDLAE' NE '').OPER3
         MNOTE 3,'FELDLAE NICHT VORHANDEN'
&FEHL    SETB  (1)
.OPER3   AIF   ('&BEGLAE' NE '').OPER4
         MNOTE 4,'BEGLAE NICHT VORHANDEN'
&FEHL    SETB  (1)
.OPER4   AIF   ('&BEGDISP' NE '').OPER5
         MNOTE 5,'BEGDISP NICHT VORHANDEN'
.FEHLER  MNOTE *,'GENERIERUNG ABGEBROCHEN'
         MEXIT
.OPER5   AIF   (&FEHL).FEHLER
         AIF   ('&FOLG' EQ 'D').SETLOW
         AIF   ('&FOLG' EQ 'A').SETHIGH
         MNOTE 6,'FOLGEFORM NICHT VORHANDEN,A ASSUMED'
.SETHIGH ANOP
&FORME   SETC  'H'
         AGO   .WEITER
.SETLOW  ANOP
&FORME   SETC  'L'
.* WENN ALLE OPERANDEN VORHANDEN SIND * * *
.WEITER  ANOP
         CNOP  0,4
&FOLGE   STM   4,6,K&SYSNDX
         STM   14,15,K&SYSNDX+12
         LA    6,&TABADDR
         LA    15,AST&SYSNDX
         L     14,AST&SYSNDX
         SR    15,14
         A     15,VUNT&SYSNDX
         BALR  14,15
UNT&SYSNDX CSECT
         BALR  15,0
         USING *,15
G&SYSNDX LR    4,6
D&SYSNDX LA    5,&FELDLAE.(4)
A&SYSNDX CLI   0(5),C'&TENDCHA'
         BE    L&SYSNDX
B&SYSNDX CP    &BEGDISP.(&BEGLAE,4),&BEGDISP.(&BEGLAE,5)
         B&FORME C&SYSNDX
E&SYSNDX LA    5,&FELDLAE.(5)
         B     A&SYSNDX
C&SYSNDX LR    4,5
         B     D&SYSNDX
L&SYSNDX CLC   0(&FELDLAE,4),0(6)
         BE    F&SYSNDX
M&SYSNDX XC    0(&FELDLAE,6),0(4)
         XC    0(&FELDLAE,4),0(6)
         EX    0,M&SYSNDX
F&SYSNDX LA    6,&FELDLAE.(6)
         CLI   0(6),C'&TENDCHA'
         BE    28(14)
         B     G&SYSNDX
&SYSECT  CSECT
         DROP  15
K&SYSNDX NOP   *  SAVE 4
         NOP   *  SAVE 5
         NOP   *  SAVE 6
         NOP   *  SAVE 14
         NOP   *  SAVE 15
AST&SYSNDX DC  A(*)
VUNT&SYSNDX DC V(UNT&SYSNDX)
         LM    4,6,0(14)
         LM    14,15,12(14)
         MEND
         EJECT
*
* ANFANG, BALR, USING UND OPENS
*
         PRINT NOGEN
         SPACE
GTFTRAZE PROGR 12000
         SPACE
A0       EQU   *
         OPEN  (DATAIN,(INPUT))
         OPEN  (SYSPRINT,(OUTPUT))
*
* LESEN DES ERSTEN SATZES, DER EIN CONTROL-RECORD SEIN MUSS
*
         GET   DATAIN
         AP    ANZAHL,=P'1'
         LA    R1,4(R1)           UM DIE RDW-LAENGE HINWEG
         TM    14(R1),X'60'       MAXIMUM TRACING GEWESEN
         BC    5,A1
         LA    R15,1
         B     ABEND
*
* HIER WIRD GEPRUEFT, OB LANGE (MIT ZEITSTEMPEL) ODER KURZE GTFSAEZTE
*
A1       EQU   *
         TM    17(R1),1           TRACE-RECORDS MIT ZEITSTEMPEL
         BZ    A1S                SHORT-RECORDS
         B     A1L                LONG RECORDS
         SPACE
A1S      EQU   *
         MVI   RECTYP,C'S'        TRACERECORDS OHNE ZEITSTEMPEL
         B     A1VS2
         SPACE
A1L      EQU   *
         MVI   RECTYP,C'L'        TRACERECORDS MIT ZEITSTEMPEL
         B     A1VS2
         EJECT
*
* ZUR ZEIT WERDEN NUR GTF-SAETZE AUS OS/VS2 UND OS/VS1 VERARBEITET
*
A1VS2    EQU   *
         TM    16(R1),X'10'       VS2-RECORDS
         BO    A3CTL              VS2-RECORDS (DER ERSTE IST EIN CTLREC
         TM    16(R1),X'20'       VS1-RECORD
         BO    A3CTL
         LA    R15,2
         B     ABEND
         SPACE
*
* LESEN ALLER WEITEREN SAETZE UND UMLADEN DER ADRESSE IN R7
*
A2       EQU   *
         GET   DATAIN
         AP    ANZAHL,=P'1'
         LA    R7,4(R1)           WIEDER UEBER DEN RDW HINWEG
         CLI   0(R7),0
         BE    A3CTL
         CLI   0(R7),X'FF'
         BE    A21
         CLI   0(R7),X'FE'
         BE    A21
         CLI   0(R7),X'FD'
         BE    A21
         B     A3FHL
         SPACE
A21      EQU   *
         CLI   RECTYP,C'L'
         BNE   *+8
         LA    R7,12(R7)          UEBER DEN ZEITSTEMPEL HINWEG
         B     A22
         EJECT
A22      EQU   *
*
* HIER WIRD DER GTF-TYP FESTGESTELLT
*
         CLC   2(2,R7),=X'2000'   PCI
         BE    A3PCI
         CLC   2(2,R7),=X'0100'   SVC
         BE    A3SVC
         CLC   2(2,R7),=X'6000'   DSP
         BE    A3DSP
         CLC   2(2,R7),=X'7100'   I/O 1
         BE    A3IO1
         CLC   2(2,R7),=X'7101'   I/O 2
         BE    A3IO2
         CLC   2(2,R7),=X'7000'   SIO
         BE    A3SIO
         CLC   2(2,R7),=X'5100'   SSM
         BE    A3SSM1
         CLC   2(2,R7),=X'0000'
         BE    A3SSM1
         CLC   2(2,R7),=X'5000'   PAGE FAULT PROGRAM INTERRUPT
         BE    A3PIPG
         CLC   2(2,R7),=X'5101'   PROGRAM INTERRUPT
         BE    A3PI
         CLC   2(2,R7),=X'5200'   EXT INT
         BE    A3EXT
         CLC   2(2,R7),=X'EFFF'   OPEN/CLOSE/EOV
         BE    A3DMA1
         CLC   2(2,R7),=X'EFF5'   VSAM
         BE    A3VSAM
         CLC   2(2,R7),=X'EFF6'   V
         BE    A3VSAM
         CLC   2(2,R7),=X'EFF7'   VSAM
         BE    A3VSAM
         CLC   2(2,R7),=X'EFF8'   VSAM
         BE    A3VSAM
         CLC   2(2,R7),=X'EFF9'   VSAM
         BE    A3VSAM
         CLC   2(2,R7),=X'EFFA'   VSAM
         BE    A3VSAM
         CLC   2(2,R7),=X'EFFB'   VSAM
         BE    A3VSAM
         CLC   2(2,R7),=X'EFFC'   VSAM
         BE    A3VSAM
         CLC   2(2,R7),=X'EFFD'   VSAM
         BE    A3VSAM
         CLC   2(2,R7),=X'EFFE'   VSAM
         BE    A3VSAM
         LA    R15,3
         B     ABEND
         EJECT
*
* HIER WERDEN DIE GTF-SAETZE DES SVC-TYPS WEITER UNTERSUCHT
*
A3SVC    EQU   *
         LA    R7,4(R1)           WIEDER UEBER DEN RDW HINWEG
         CLI   1(R7),1            MUST BE REALLY AN SVC-RECORD
         BE    A3SVCSVC
A3SVC239 EQU   *
A3SVC256 EQU   *
         LA    R15,4
         B     ABEND
         SPACE
A3SVCSVC EQU   *
         CLI   RECTYP,C'L'
         BNE   *+8
         LA    R7,12(R7)          UEBER TIMESTAMP WENN VORHANDEN
         XR    R8,R8
         IC    R8,19(R7)
         MH    R8,=H'26'
         A     R8,=A(ANZSVC00)
         CLI   19(R7),119         SVC UEBER 119
         BH    A3SVC120
A3SVCAP  EQU   *
         AP    0(6,R8),=P'1'
         CLI   19(R7),6           SVC 6 (LINK)
         BE    A3SVC06
         CLI   19(R7),7           SVC 7 (XCTL)
         BE    A3SVC07
         CLI   19(R7),8           SVC 08 (LOAD)
         BE    A3SVC08
         B     A2                 ALLE ANDEREN SVC'S NICHT ERWUENSCHT
A3SVC120 EQU   *
         CLI   19(R7),240
         BL    A3SVC239
         CLI   19(R7),255
         BH    A3SVC256
         S     R8,=A(120*26)
         B     A3SVCAP
         SPACE
A3SVC06  EQU   *
A3SVC07  EQU   *
         MVC   ACHT,52(R7)
         B     A3SVCTAB
         EJECT
A3SVC08  EQU   *
         MVC   ACHT,44(R7)
         B     A3SVCTAB
         SPACE
*
* DIE VERWENDETEN MODUL-NAMEN WERDEN IN DIE SVC-TABELLE GESTELLT
*
A3SVCTAB EQU   *
         L     R14,=A(TABSVC)
A3SVCCLI EQU   *
         LA    R15,11
         CLI   0(R14),C'$'
         BE    ABEND
         CLI   0(R14),C'*'
         BE    A3SVCNF
         CLC   0(8,R14),ACHT
         BE    A3SVCFND
         LA    R14,12(R14)
         B     A3SVCCLI
         SPACE
A3SVCNF  EQU   *
         MVC   0(8,R14),ACHT
         MVI   12(R14),C'*'
         B     A3SVCFND
*
* UND JE AUFRUF WIRD DER ZAEHLER UM EINS ERHOEHT
*
A3SVCFND EQU   *
         L     R15,8(R14)
         LA    R15,1(R15)
         ST    R15,8(R14)
         B     A2
         EJECT
*
* HIER WERDEN DIE ZUR ZEIT NICHT WEITER UNTERSUCHTEN SAETZE GEZAEHLT
*
A3CTL    EQU   *
         AP    ANZCTL,=P'1'
         B     A2
         SPACE
A3PCI    EQU   *
         AP    ANZPCI,=P'1'
         B     A2
         SPACE
A3DSP    EQU   *
         AP    ANZDSP,=P'1'
         B     A2
         SPACE
A3SSM1   EQU   *
         AP    ANZSSM,=P'1'
         B     A2
         SPACE
A3PIPG   EQU   *
         AP    ANZPIP,=P'1'
         B     A2
         SPACE
A3PI     EQU   *
         AP    ANZPIN,=P'1'
         B     A2
         SPACE
A3EXT    EQU   *
         AP    ANZEXT,=P'1'
         B     A2
         SPACE
A3DMA1   EQU   *
         AP    ANZOCE,=P'1'
         B     A2
         SPACE
A3VSAM   EQU   *
         AP    ANZVSA,=P'1'
         B     A2
         EJECT
*
* DIE ALS UNGUELTIG ERKANNTEN SAETZE KOMMEN HIER AUF EIN ZWEITES BAND
*
A3FHL    EQU   *
         AP    ANZFHL,=P'1'
         NOP   A3FHL1
A3FHLOI  EQU   *-3
         OI    A3FHLOI,240
         OPEN  (DATAOUT,(OUTPUT))
A3FHL1   EQU   *
         LR    R0,R1
         PUT   DATAOUT
         B     A2
         EJECT
*