//SYSTSMFP JOB (9029,270),TAUCHNITZ,CLASS=H
//SYSTSMFP EXEC ATASMHCL
//C.SYSLIB DD  DSN=SYS1.MACLIB,DISP=SHR
//         DD  DSN=SYS1.MACLIB,DISP=SHR
//         DD  DSN=SYS1.AMODGEN,DISP=SHR,VOL=SER=DLIB01,UNIT=3330
//C.SYSIN  DD  *
SMFREPRT TITLE 'SMFREPORT - DIE ONE-PAGE-ONLY-VERSION'
**
**LINK INCLUDE OBJMODS(OSGMZZZ0,OSPMZZZ9)
**LINK INCLUDE SYSLMOD(CVGK,CVDZ,RECHEN,SYSTMDAT)
**LINK NAME SMFREPRT(R)
**
         PRINT NOGEN
         MACRO
&NAME    CONSOR &FELD,&LNG
         GBLB  &PRO,&I
         LCLA  &L2
         LCLC  &LTYP
         AIF   (&PRO).OK
         MNOTE *,'OHNE PROGR KANN CONSOR NICHT GENERIERT WERDEN.'
         MEXIT
.OK      ANOP
         AIF   (&I).M1
&NAME    B     WTOZZZZZ
         CNOP  0,4
WTOXXXXX DS    F
         ST    R14,0(R15)
         CNOP  0,4
         BAL   R1,122(R15) ;      BRANCH AROUND MESSAGE
         DC    AL2(109) ;         MESSAGE LENGTH
         DC    X'0000' ;          MCSFLAGS FIELD
         DC    CL105' ' ;         MESSAGE
         DS    0H
         SVC   35 ;               ISSUE WTO-SVC
         CNOP  2,4
         BALR  R15,R0
         B     8(R15)
         DC    A(WTOXXXXX)
         L     R14,4(R15)
         L     R14,0(R14)
         BR    R14
WTOZZZZZ EQU   *
.M1      ANOP
&LTYP    SETC  'L'''
         AIF   ('&LNG' EQ '').M2
&L2      SETA  &LNG+4
         AGO   .M3
.M2      ANOP
&L2      SETA  L'&FELD
&L2      SETA  &L2+4
.M3      ANOP
         AIF   (&L2 LE 109).NOGT105
         MNOTE 4,'MESSAGE LAENGER ALS 105 STELLEN NICHT ERLAUBT'
&L2      SETA 109
.NOGT105 ANOP
         CNOP  2,4
         AIF   (&I).I
         BALR  R15,R0
         AGO   .NOTI
.I       ANOP
&NAME    BALR  R15,R0
.NOTI    ANOP
&I       SETB  1
         B     8(R15)
         DC    A(WTOXXXXX)
         L     R15,4(R15)
         AIF   ('&LNG' NE '').M4
         AIF   (&L2 LE 109).M31
         MVC   16(105,R15),&FELD
         AGO   .M5
.M31     ANOP
         MVC   16(&LTYP&FELD,R15),&FELD
         AGO   .M5
.M4      ANOP
         AIF   (&L2 LE 109).M41
         MVC   16(105,R15),&FELD
         AGO   .M5
.M41     ANOP
         MVC   16(&LNG,R15),&FELD
.M5      ANOP
         MVC   12(2,R15),=H'&L2'
         BAL   R14,4(R15)
         MEND
         EJECT
         MACRO
&NAME    CVDEZ &D,&G
         CNOP  0,4
&NAME    BAL   1,*+12
         DC    A(&G,&D)
         L     15,=V(CVDZ)
         BALR  14,15
         MEND
         EJECT
         MACRO
&NAME    CVGLEIT &G,&D
         CNOP  0,4
&NAME    BAL   1,*+12
         DC    A(&D,&G)
         L     15,=V(CVGK)
         BALR  14,15
         MEND
         EJECT
         MACRO
&NAME    CVTAB &LIST,&TYPE=Z
         LCLA  &COUNT,&N,&INDEX
         LCLC  &L
&COUNT   SETA  N'&LIST/2
&N       SETA  &N+1
         AIF   ('&TYPE' EQ 'Z').ZONED
         AIF   ('&TYPE' EQ 'P').PACKED
         MNOTE 8,'TYPE PARAMETER IST FALSCH ... KEINE GENERIERUNG'
         MEXIT
.PACKED  ANOP
&INDEX   SETA  6
.ZONED   ANOP
         CNOP  0,4
&NAME    DC    AL1(&COUNT)
         DC    AL3(0)
.LOOP    ANOP
&L       SETC  'L'''
         DC    AL1(&L&LIST(&N))
         DC    AL3(&LIST(&N))
         DC    AL1(&LIST(&N+1))
         DC    AL3(&INDEX)
&COUNT   SETA  &COUNT-1
&N       SETA  &N+2
         AIF   (&COUNT GT 0).LOOP
         MEXIT
         MEND
         EJECT
         MACRO
&NAME    EOJ   &RC=O
*********************************  E O J - R E T U R N ****************
         GBLB  &PRO
         AIF   (&PRO).EOJ
         MNOTE 12,'OHNE PROGR KANN EOJ NICHT GENERIERT WERDEN'
         MEXIT
.EOJ     ANOP
         AIF   ('&RC' EQ 'O').NORC
         AIF   ('&RC'(1,1) NE '(').DIRECT
.REG1    ANOP
         AIF   ('&RC(1)' NE '15' AND '&RC(1)' NE 'R15').NO15
&NAME    ST    R15,R&SYSNDX
         AGO   .ALL1
.NORC    ANOP
.DIRECT  ANOP
&NAME    L     R1,108(R3)
         AGO   .ALL2
.ALL1    ANOP
         L     R1,108(R3)
.ALL2    ANOP
         SVC   14
         CLI   15(R3),C'R'
         BNE   R&SYSNDX+4
         LOAD  EP=EOJ
         LR    R15,R0
         CNOP  0,4
         BAL   R1,*+8
         DC    A(R&SYSNDX)
         BALR  R14,R15
         DS    0F
         AIF   ('&RC' NE 'O').NOO
         MNOTE 1,'WARUM IST KEIN RC GESETZT WORDEN'
R&SYSNDX DC    AL1(128),AL3(0)
         L     R13,32(R3)
         LM    R14,R12,12(R13)
         BR    R14
         MEXIT
.NOO     ANOP
         AIF   ('&RC'(1,1) EQ '(').REG2
R&SYSNDX DC    AL1(0),AL3(&RC)
         L     R13,32(R3)
         LM    R14,R12,12(R13)
         LA    R15,&RC
         BR    R14
         MEXIT
.REG2    ANOP
         AIF   ('&RC(1)' NE '15' AND '&RC(1)' NE 'R15').NO15
R&SYSNDX DC    AL1(0),AL3(0)
         L     R13,32(R3)
         L     R14,12(R13)
         L     R15,R&SYSNDX
         LM    R0,R12,20(R13)
         BR    R14
         MEXIT
.NO15    ANOP
         IHBERMAC 61,,&RC
         MEND
         EJECT
         MACRO
&NAME    FILL  &P1,&P2,&P3
         GBLC  &CG1,&CG2
         LCLA  &AL1,&AL2
 AIF ('&P1' EQ '').A
 AIF ('&P2' NE '').B
.A MNOTE 'PARAMETER FEHLEN'
 MEXIT
.B AIF ('&P3' EQ '').C
&CG1 SETC '&P3.#'(1,2)
 AIF ('&CG1' EQ 'X''').BB
&CG2 SETC '&CG1'(2,1)
 AIF ('&CG2' EQ '#').BBB
 MNOTE 'PARAMETER 3 UNGUELTIG'
 MEXIT
.BB ANOP
&NAME    MVI   &P1,&P3
 AGO .D
.BBB ANOP
&NAME    MVI   &P1,C'&P3'
 AGO .D
.C ANOP
&NAME    MVI   &P1,C' '
.D AIF (&P2 EQ 1).G
&AL1 SETA 1
&AL2 SETA &P2-1
 AIF (&AL2 LE 256).F
.E       MVC   &P1+&AL1.(256),&P1
&AL1 SETA &AL1+256
&AL2 SETA &P2-&AL1
 AIFB (&AL2 GT 256).E
.F       MVC   &P1+&AL1.(&AL2),&P1
.G MEND
         EJECT
         MACRO
&NAME    PARM
         LCLA  &ANF,&EOP,&EPARM,&GLEICH,&WERT,&STERN,&LWERT,&L1,&L2
         LCLC  &DAT1,&DAT2,&DAT3,&DAT4,&X
         LCLC  &TEXT1,&TEXT2,&TEXT3,&TEXT4,&TEXT5
         AIF   ('SYSLIST(1)' NE '').MITOP1
         MNOTE *,'OHNE PARAMETER KEINE GENERIERUNG'
         MEXIT
.MITOP1  ANOP
&X       SETC  '&SYSNDX'
***********************************************************************
&NAME    B     LINKPARM
P1&X     EQU   *
&EPARM   SETA  K'&SYSLIST(1)
&ANF     SETA  1
.SCH1    ANOP
&ANF     SETA  &ANF+1
&GLEICH  SETA  &ANF+1
&WERT    SETA  &GLEICH+1
&EOP     SETA  &WERT+1
         AIF   ('&SYSLIST(1)'(&GLEICH,1) NE '=').FEHLER1
.SCH2    ANOP
         AIF   ('&SYSLIST(1)'(&EOP,1) EQ ')'                           *
               OR '&SYSLIST(1)'(&EOP,1) EQ ',').SCH3
&EOP     SETA  &EOP+1
         AIF   (&EOP GT &EPARM).FEHLER2
         AGO   .SCH2
.SCH3    ANOP
&STERN   SETA  &EOP-1
&DAT1    SETC  '&SYSLIST(1)'(&ANF,2)
&DAT2    SETC  '&SYSLIST(1)'(&ANF,1)
&LWERT   SETA  &STERN-&WERT
         AIF   ('&SYSLIST(1)'(&STERN,1) EQ '*').STAR
         AIF   ('&SYSLIST(1)'(&STERN,1) EQ '$').DOLLAR
         AIF   ('&SYSLIST(1)'(&STERN,1) EQ '%').PRZENT
&DAT3    SETC  ' '
&TEXT1   SETC  'WAHLWEIS'
&TEXT2   SETC  'E    MIT'
&TEXT3   SETC  ' FESTER '
&TEXT4   SETC  '   LAENG'
&TEXT5   SETC  'E       '
&STERN   SETA  &EOP
&LWERT   SETA  &STERN-&WERT
         AGO   .ALWAYS
.STAR    ANOP
&DAT3    SETC  '*'
&TEXT1   SETC  'ERFORDER'
&TEXT2   SETC  'LICH MIT'
&TEXT3   SETC  ' FESTER '
&TEXT4   SETC  '   LAENG'
&TEXT5   SETC  'E       '
         AGO   .ALWAYS
.DOLLAR  ANOP
&DAT3    SETC  '$'
&TEXT1   SETC  'WAHLWEIS'
&TEXT2   SETC  'E    MIT'
&TEXT3   SETC  ' VARIABL'
&TEXT4   SETC  'ER LAENG'
&TEXT5   SETC  'E       '
         AGO   .ALWAYS
.PRZENT  ANOP
&DAT3    SETC  '%'
&TEXT1   SETC  'ERFORDER'
&TEXT2   SETC  'LICH MIT'
&TEXT3   SETC  ' VARIABL'
&TEXT4   SETC  'ER LAENG'
&TEXT5   SETC  'E       '
.ALWAYS  ANOP
         AIF   (&LWERT LE 0).FEHLER3
&DAT4    SETC  '&SYSLIST(1)'(&WERT,&LWERT)
&L2      SETA  &DAT4
&L1      SETA  &L2+2
         DC    AL1(&L1)
         DC    C'&DAT1'
PARM&DAT2 DC CL&L2.'&DAT3'
         MNOTE *,'           &TEXT1&TEXT2&TEXT3&TEXT4&TEXT5'
         AIF   (&EOP EQ &EPARM).PARAEND
&ANF     SETA  &EOP
         AGO   .SCH1
.FEHLER1 MNOTE 1,'PARAMETER FALSCH'
         MEXIT
.FEHLER2 MNOTE 2,'PARAMETER FALSCH'
         MEXIT
.FEHLER3 MNOTE 3,'PARAMETER FALSCH'
         MEXIT
.PARAEND ANOP
         DC    C'@'
LINKPARM LINK EP=PARM,PARAM=(PARA0001,P1&X)
***********************************************************************
         EJECT
         MEND
         EJECT
         MACRO
&NAME    PROGR &P1,&P2
****************************  E T E R N I T  **************************
*                                                                     *
*                                 PROGR OS-VERSION                    *
*                                                                     *
***********************************************************************
*                                 J.TOUCHET   AM 25.01.71             *
*                                 A.TAUCHNITZ 25.04.74 LEVEL 002      *
***********************************************************************
         GBLB  &PRO
         GBLC  &SAVE
         LCLA  &AL6,&AL7,&AL8,&AL9,&AL10,&K,&K1,&K2
         LCLC  &R,&X,&DATA,&CODE,&APOS
         LCLB  &FEHL,&SHORT
         AIF   (NOT &PRO).YES
.YES     ANOP
&X       SETC  '&SYSNDX'
         AIF   ('&NAME' NE '').A
         MNOTE 'NAME FEHLT'
&FEHL    SETB  1
.A       AIF   (T'&P1 EQ 'N').B
         MNOTE 'PARAMETER 1 FEHLT ODER NICHT NUMERISCH'
.GENEND  MEXIT
.B       AIF   (&FEHL).GENEND
&SAVE    SETC  'SAVE&X'
&R       SETC  'R'
***********************************************************************
*                                 * SAVEROUT, BALR, USING *           *
***********************************************************************
&APOS    SETC  ''''
&CODE    SETC  'F'''
&K2      SETA  8
&DATA    SETC  '00000000'
         AIF   ('&P2' NE 'SHORT').LONG1
&SHORT   SETB  1
         AGO   .ZERO
.LONG1   AIF   ('&P2' EQ '').ZERO
&K       SETA  K'&P2
         AIF   ('&P2'(1,1) NE 'C').NOC
&CODE    SETC  'F'''
         AGO   .C
.NOC     AIF   ('&P2'(1,1) NE 'X').NOCNOX
&CODE    SETC  'X'''
         AIF   (&K LT 4 OR &K GT 9).FEHLER
         AGO   .C1
.C       AIF   (&K LT 4 OR &K GT 11).FEHLER
.C1      AIF   ('&P2'(2,1) NE '''' OR '&P2'(&K,1) NE '''').FEHLER
&K1      SETA  &K-3
&DATA    SETC  '&P2'(3,&K1)
&K2      SETA  &K2-&K1
.LOOP    AIF   (&K2  EQ 0).ENDSYNT
&DATA    SETC  '0&DATA'
&K2      SETA  &K2-1
         AGO   .LOOP
.NOCNOX  AIF   (&K GT 8).FEHLER
&CODE    SETC  'F'''
&DATA    SETC  '&P2'
&K2      SETA  &K2-&K
         AGO   .LOOP
.ENDSYNT AIF   ('&CODE'(1,1) NE 'F').NOF
&AL6     SETA  &DATA
&AL7     SETA  2097152
.LOOP1   AIF   (&AL6 EQ 0 AND &AL7 EQ 8).ZERO
         AIF   (&AL6 EQ &AL7).ZERO
         AIF   (&AL6 GT &AL7).SUBSTR
         AIF   (&AL7 EQ 8).FEHLER1
&AL7     SETA  &AL7/8
         AGO   .LOOP1
.SUBSTR  ANOP
&AL6     SETA  &AL6-&AL7
         AGO   .LOOP1
.FEHLER1 MNOTE *,'START-ADRESSE NICHT OHNE REST DURCH 8 TEILBAR. START *
               0 WIRD GENERIERT'
         AGO   .SETZERO
.NOF     AIF   ('&DATA'(8,1) NE '0' AND '&DATA'(8,1) NE '8').FEHLER1
.ZERO    AIF   ('&DATA' NE '00000000').NOZERO
&NAME    CSECT
         AGO   .ENTRY
.NOZERO  ANOP
         AIF   ('&CODE'(1,1) NE 'F').NOF1
&NAME    START &DATA
         AGO   .ENTRY
.NOF1    ANOP
&NAME    START &P2
         AGO   .ENTRY
.FEHLER  MNOTE *,'SYNTAX VON PARAMETER 2 IST FALSCH ... START 0 WIRD GE-
               NERIERT'
.SETZERO ANOP
&CODE    SETC  'F'''
&DATA    SETC  '00000000'
         AGO   .ZERO
.ENTRY   ANOP
         ENTRY &NAME
         B     16(0,R15) ;        BRANCH AROUND ID
         DC    AL1(11) ;          LENGTH OF IDENTIFIER
         DC    CL11'&NAME' ;      IDENTIFIER
         AIF   (&SHORT).SHORT0
         ORG   *-1
         DC    C'R'     ROOT PHASE
.SHORT0  ANOP
         STM   R14,R12,12(R13) ;  SAVE REGISTERS
         USING &NAME,R3 ;        R3 IST ERSTES BASIS REGISTER
         LR    R3,R15
         LR    R11,R13
         AIF   (&SHORT).SHORT1
         BAL   R13,120(R3)
         AGO   .LONG2
.SHORT1  BAL   R13,112(R3)
.LONG2   ANOP
SAVE&X   DS    18F ;              SAVEAREA
VF&X     DC    &CODE&DATA&APOS DIFFERENZ ZWI. ASSEMBLER UND SPEICHER
PARA&X   DS    F
PICA&X   DS    F
         DC    A(LEVEL-LEVEL)
         ORG   *-4
         AIF   (&SHORT).SHORT2
DATUM    DC    CL8'0' ;           TT.MM.JJ
TEST&X   B     *+10
         DC    X'0700'
         B     REP&X-4
.SHORT2  ANOP
         ST    R13,8(R11) ;       SAVEAREAS
         ST    R11,4(R13) ;                 VERKETTEN
         NOP   *+20
         OI    *-3,X'F0'
         LA    R4,&NAME
         S     R4,VF&X
         ST    R4,VF&X
&AL8     SETA  &P1+4095
&AL8     SETA  &AL8/4096+2
         AIF   (&AL8 LE 3).K
         AIF   (&AL8 LE 15).G
&AL8     SETA  15
.G       ANOP
&AL6     SETA  (&AL8-3)*4+4
         LA    &R&AL8,4095
&AL6     SETA  &AL6-4
&AL9     SETA  3
.J       ANOP
&AL9     SETA  &AL9+1
&AL10    SETA  &AL10+4096
         USING &NAME+&AL10,&AL9 ;    NOCH EIN USING,NACH WUNSCH
         AIF   (&AL9 LT &AL8).J
&AL7     SETA  2
&AL9     SETA  3
.F       ANOP
&AL7     SETA  &AL7+1
&AL9     SETA  &AL9+1
         LA    &R&AL9,1(&R&AL8,&R&AL7) ;      BASISREGISTER LADEN
         AIF   (&AL9 LT &AL8).F
.K       ANOP
         ST    R1,PARA&X
         AIF   (&PRO).NOEQU
&PRO     SETB  1
***********************************************************************
*                                 *** REGISTER EQUATEN ***            *
***********************************************************************
R0       EQU   0
R1       EQU   1
R2       EQU   2
R3       EQU   3
R4       EQU   4
R5       EQU   5
R6       EQU   6
R7       EQU   7
R8       EQU   8
R9       EQU   9
R10      EQU   10
R11      EQU   11
R12      EQU   12
R13      EQU   13
R14      EQU   14
R15      EQU   15
FPR0     EQU   0
FPR2     EQU   2
FPR4     EQU   4
FPR6     EQU   6
.NOEQU   ANOP
         AIF   (&SHORT).SHORT3
         NOP   FEHL&X
         OI    *-3,X'F0'
***********************************************************************
*                                 *** DATUM ***                       *
***********************************************************************
         LINK  EP=DATE,PARAM=DATUM
***********************************************************************
*                                 *** JOB-NAME,JOBSTEP-NAME,DATUM *** *
***********************************************************************
         L     R1,16 ;            ADR VON CVT AUS LOC HEX 10
         L     R1,0(R1) ;         ADR VON TCB DW IN R1 LADEN
         L     R1,4(R1) ;         ADR DES LAUFDN. TCB IN R1 LADEN
         L     R1,12(R1) ;        ADR DES TIOT AUS TCB IN R1 LADEN
         MVC   DAT5&X+9(8),0(R1) ;JOB-NAME
         MVC   DAT5&X+30(8),8(R1) JOBSTEP- ODER PROCSTEP-NAME
         MVC   DAT5&X+45(4),LEVEL LEVEL-NR
         MVC   DAT5&X+50(8),DATUM  TAGESDATUM
         CLC   8(4,R1),=C'TEST'     FRAGEN OB TEST ERWUENSCHT IST
         BNE   *+8
         NI    TEST&X+4,X'00' ;   TEST ANFORDERUNG WEICHE
         CLC   8(3,R1),=C'REP'
         BNE   *+8
         NI    REP&X+1,X'0F'
         CONSOR DAT5&X,58
         XC    DAT5&X,DAT5&X
         MVC   DAT5&X.(L'NAME),NAME
         CONSOR DAT5&X,105
         XC    DAT5&X,DAT5&X
         B     FEHL&X
DAT5&X   DC    C'JOB-NAME XXXXXXXX   STEP-NAME          LEVEL XXXX TT.M'
               M.JJ                                               '
.SHORT3  ANOP
FEHL&X   NOP   BAL2&X
         OI    *-3,240
         LOAD  EP=CHECKRT
         CNOP  0,4
         ST    R0,*+8
BAL2&X   BAL   R2,*+8
         DC    F'0'
         L     R2,0(R2)
         SPIE  (2),((1,15))
         ST    R1,PICA&X
         AIF   (&SHORT).SHORT4
         B     TEST&X+4
         NI    *-3,X'0F'
REP&X    B     NREP&X
         OI    *-3,X'F0'
         LINK  EP=REPROUT
NREP&X   EQU   *
.SHORT4  ANOP
         L     R1,PARA&X
***********************************************************************
         EJECT
         MEND
         EJECT
         MACRO
&NAME    RAUF  &R,&WOHIN1
         GBLB  &TRTTAB
         LCLC  &WOHIN
&WOHIN   SETC  '&WOHIN1'
&NAME    ST    &R,FW&SYSNDX
         MVC   F&SYSNDX,FW&SYSNDX
         UNPK  N&SYSNDX,F&SYSNDX
         TR    N&SYSNDX,TRTTAB-240
         MVC   &WOHIN+0(L'N&SYSNDX-1),N&SYSNDX
         B     END&SYSNDX
FW&SYSNDX  DS  F
         DS    CL1
F&SYSNDX DS    0CL5
N&SYSNDX DS    CL9
         AIFB  (&TRTTAB).END
&TRTTAB  SETB  1
         DS    CL240
TRTTAB   DC    X'F0F1F2F3F4F5F6F7F8F9C1C2C3C4C5C6'
.END     ANOP
END&SYSNDX EQU *
         MEND
         EJECT
         MACRO
&NAME    VERTEIL &LINECNT=48,&TEXT=,&DCBNAME=,&CODE=M
         LCLA  &LIN,&CC
         LCLC  &X
         LCLB  &FEHL,&TEXTR,&DCBR
&X       SETC  '&SYSNDX'
         AIF   ('&LINECNT' LE '48').LE48
&FEHL    SETB  (1)
         MNOTE 1,'LINECNT MUSS KLEINER 49 SEIN'
.LE48    ANOP
         AIF   ('&DCBNAME' NE '').WITHDCB
&FEHL    SETB  (1)
         MNOTE 2,'OHNE DCBNAME GEHT ES EBEN AUCH NICHT'
.WITHDCB ANOP
         AIF   ('&TEXT' NE '').TEXTJA
&FEHL    SETB  (1)
         MNOTE 3,'TEXT MUSS AUCH ANGEGEBEN WERDEN'
.TEXTJA  ANOP
         AIF   ('&CODE' EQ 'A' OR '&CODE' EQ 'M').CODEOK
         MNOTE 5,'CODE IST FALSCH. M WIRD GENERIERT'
.CODEOK  ANOP
         AIF   (NOT &FEHL).PARAOK
         MNOTE *,'BITTE KORRIGIEREN'
         MEXIT
.PARAOK  ANOP
         AIF   ('&CODE' EQ 'A').A
&CC      SETA  128
         AGO   .OVERA
.A       ANOP
&CC      SETA  192
.OVERA   ANOP
         AIF   ('&TEXT'(1,1) NE '(').NOR1
&TEXTR   SETB  (1)
.NOR1    ANOP
         AIF   ('&DCBNAME'(1,1) NE '(').NOR2
&DCBR    SETB  (1)
.NOR2    ANOP
&LIN     SETA  &LINECNT-5
         CNOP  0,4
&NAME    B     *+12
PARM&X   DC    AL1(&LIN)
         DC    AL3(&TEXT)
         DC    AL1(&CC)
         DC    AL3(&DCBNAME)
         AIF   (NOT &TEXTR).NOR3
         ST    &TEXT(1),PARM&X
         MVI   PARM&X,&LIN
.NOR3    ANOP
         AIF   (NOT &DCBR).NOR4
         ST    &DCBNAME(1),PARM&X+4
         MVI   PARM&X+4,&CC
.NOR4    LINK  EP=XXXAVRTL,PARAM=PARM&X
         MEND
         EJECT
         MACRO
&NAME    IFASMFR &RECTYPE,&T1,&T2
.*A 011300,340700-341060,661534-664230,964400-965757             Y01120
.*C 028800,963900                                                Y01120
.*A 011400,093800-094088,965758-972415                           Y01113
.*A 542800                                                       Y01901
.*A 119420                                                       Y01018
.*C 010800,683600-684599,929300-932300                           Y01018
.*D 126900,862200-883800                                         Y01018
.*C 148500                                                       XM4432
.*A 153500                                                       XM4432
.*C 809100,852300                                                A40791
.*A 232700,232900-233600,296600,296900,808700,808940,809000      A40791
.*A 851900                                                       A40791
.*A 639500,639600                                                A40793
*  THIS IS AN SMF MACRO WHICH BUILDS ANY NUMBER OF SMF RECORDS. THE
* REQUIRED FORMAT IS -
*
*        IFASMFR  &RECTYPE,&T1,&T2
*  NOTE: VALUES FOR &RECTYPE MUST BE ENCLOSED IN PARENS(UNLESS ONLY 1)
*  THE POSSIBLE VALUES FOR &RECTYPE ARE:
*
*        0 - 13                SUBSET1 TYPE RECORDS
*        14,17-21              SUBSET2 TYPE RECORDS
*           TYPE 15 IS A SUBSET 2 RECORD BUT DOES NOT HAVE A UNIQUE
*           DSECT. IF 15 IS SPECIFIED, THE TYPE 14 DSECT IS PRODUCED.
*           14 AND 15 CAN NOT BOTH BE SPECIFIED IN ONE PROGRAM.
*        30-35,40-42           TSO TYPE RECORDS                  Y01018
*        26,43,45,47,48        HASP                              Y01120
*        62,64,68,69           VSAM                              Y01113
*
*  THE POSSIBLE VALUES FOR &T1 OR &T2 ARE:
*
*        SUBSET1, SUBSET2, TSO, ALL
         LCLA  &NUM,&B,&SWK,&SW1
.* &NUM IS SET TO THE NUMBER OF SUBSTRING ITEMS IN THE FIRST PARAMETER
.* AND &B IS USED TO POINT AT EACH SUBSTRING ITEM.
.* &SW1=0 FOR CALLING OUT INDIVIDUAL RECORD TYPES BY NUMBER
.*     =1 FOR SUBSET1,   =2 FOR TSO,   =3 FOR SUBSET2,   =4 FOR ALL
.* &SWK=1 FOR EXAMINING &T1(2ND ARGUMENT)
.*     =2 FOR EXAMINING &T2(3RD ARGUMENT)
.*     =3 FOR ENDING.
         AIF   ('&RECTYPE' EQ '' AND '&T1' EQ '' AND '&T2' EQ '').E1
         AIF   ('&RECTYPE' EQ '').NEXT
&NUM     SETA  N'&RECTYPE
         AGO   .CONTC
.CONTB   ANOP
&NUM     SETA  &NUM-1
.CONTC   ANOP
         AIF   (&NUM LE 0).NEXT
&B       SETA  &B+1
.RTYCHK  AIF   ('&RECTYPE(&B)' EQ '').E3
         AIF   (&RECTYPE(&B) GT 69 OR &RECTYPE(&B) LT 0).E5
         AGO   .CONTA
.E1      ANOP
         SPACE 3
         MNOTE 8,'PARAMETERS OMITTED, PROCESSING TERMINATED'
         MEXIT
.E2      ANOP
         SPACE 3
         MNOTE 8,'&RECTYPE(&B) DUPLICATE RECORD CALL'
         AGO   .CONTB
.E3      ANOP
         SPACE 3
         MNOTE 4,'NULL RECORD TYPE PASSED'
         AGO   .CONTB
.E4      ANOP
         SPACE 3
         MNOTE 8,'&T1,&T2, INVALID COMBINATION OF PARAMETERS'
         MEXIT
.E5      ANOP
         SPACE 3
         MNOTE 4,'&RECTYPE(&B) INVALID RECORD TYPE SPECIFIED'
         AGO   .CONTB
.E6      ANOP
         SPACE 3
         MNOTE 8,'&T1 KEYWORD INVALID'
         AGO   .TKEY
.E7      ANOP
         SPACE 3
         MNOTE 8,'&T2 KEYWORD INVALID'
         MEXIT
.NEXT    ANOP
         AIF   ('&T1' EQ 'ALL' AND '&T2' NE '').E4
         AIF   ('&T2' EQ 'ALL' AND '&T1' NE '').E4
         AIF   ('&T1' EQ '&T2' AND '&T1' NE '').E4
.TKEY    ANOP
&SW1     SETA  0
&SWK     SETA  &SWK+1
         AIF   (&SWK EQ 1).SK1
         AIF   (&SWK EQ 2).SK2
         AIF   (&SWK EQ 3).OUT
.SK1     ANOP
         AIF   ('&T1' EQ '').TKEY
         AIF   ('&T1' EQ 'SUBSET1').SSW1
         AIF   ('&T1' EQ 'TSO').SSW2
         AIF   ('&T1' EQ 'SUBSET2').SSW3
         AIF   ('&T1' EQ 'ALL').SSW4
         AGO   .E6
.SK2     ANOP
         AIF   ('&T2' EQ '').OUT
         AIF   ('&T2' EQ 'SUBSET1').SSW1
         AIF   ('&T2' EQ 'TSO').SSW2
         AIF   ('&T2' EQ 'SUBSET2').SSW3
         AIF   ('&T2' EQ 'ALL').SSW4
         AGO   .E7
.SSW1    ANOP
&SW1     SETA  1
         AGO   .SW1A
.SSW2    ANOP
&SW1     SETA  2
         AGO   .SW1A
.SSW3    ANOP
&SW1     SETA  3
         AGO   .SW1A
.SSW4    ANOP
&SW1     SETA  4
.SW1A    ANOP
         AIF   (&SW1 EQ 3).IFAS014
         AIF   (&SW1 EQ 2).IFAS030
         AGO   .IFAS000
.CONTA   AIF   (&RECTYPE(&B) GE 0 AND &RECTYPE(&B) LE 5).G1
         AIF   (&RECTYPE(&B) GE 6 AND &RECTYPE(&B) LE 13).G2
         AIF   (&RECTYPE(&B) GE 14 AND &RECTYPE(&B) LE 21).G3
         AIF   (&RECTYPE(&B) GE 30 AND &RECTYPE(&B) LE 42).G4
         AIF   (&RECTYPE(&B) EQ 26).IFAS026
         AIF   (&RECTYPE(&B) EQ 43).IFAS043
         AIF   (&RECTYPE(&B) EQ 45).IFAS045
         AIF   (&RECTYPE(&B) EQ 47).IFAS047
         AIF   (&RECTYPE(&B) EQ 48).IFAS048
         AIF   (&RECTYPE(&B) EQ 62).IFAS062
         AIF   (&RECTYPE(&B) EQ 64).IFAS064
         AIF   (&RECTYPE(&B) EQ 68).IFAS068
         AIF   (&RECTYPE(&B) EQ 69).IFAS069
         AGO   .E5
.G1      ANOP
         AIF   ('&T1' EQ 'SUBSET1' OR '&T2' EQ 'SUBSET1').E2
         AIF   ('&T1' EQ 'ALL' OR '&T2' EQ 'ALL').E2
         AIF   (&RECTYPE(&B) EQ 0).IFAS000
         AIF   (&RECTYPE(&B) EQ 1).IFAS001
         AIF   (&RECTYPE(&B) EQ 2).IFAS002
         AIF   (&RECTYPE(&B) EQ 3).IFAS003
         AIF   (&RECTYPE(&B) EQ 4).IFAS004
         AIF   (&RECTYPE(&B) EQ 5).IFAS005
.G2      ANOP
         AIF   ('&T1' EQ 'SUBSET1' OR '&T2' EQ 'SUBSET1').E2
         AIF   ('&T1' EQ 'ALL' OR '&T2' EQ 'ALL').E2
         AIF   (&RECTYPE(&B) EQ 6).IFAS006
         AIF   (&RECTYPE(&B) EQ 7).IFAS007
         AIF   (&RECTYPE(&B) EQ 8).IFAS008
         AIF   (&RECTYPE(&B) EQ 9).IFAS009
         AIF   (&RECTYPE(&B) EQ 10).IFAS010
         AIF   (&RECTYPE(&B) EQ 11).IFAS011
         AIF   (&RECTYPE(&B) EQ 12).IFAS012
         AIF   (&RECTYPE(&B) EQ 13).IFAS013
.G3      ANOP
         AIF   (&RECTYPE(&B) EQ 16).E5
         AIF   ('&T1' EQ 'SUBSET2' OR '&T2' EQ 'SUBSET2').E2
         AIF   ('&T1' EQ 'ALL' OR '&T2' EQ 'ALL').E2
         AIF   (&RECTYPE(&B) EQ 14 OR &RECTYPE(&B) EQ 15).IFAS014
         AIF   (&RECTYPE(&B) EQ 17).IFAS017
         AIF   (&RECTYPE(&B) EQ 18).IFAS018
         AIF   (&RECTYPE(&B) EQ 19).IFAS019
         AIF   (&RECTYPE(&B) EQ 20).IFAS020
         AIF   (&RECTYPE(&B) EQ 21).IFAS021
         AGO   .E5
.G4      ANOP
         AIF   (&RECTYPE(&B) EQ 36).E5
         AIF   (&RECTYPE(&B) EQ 37).E5
         AIF   (&RECTYPE(&B) EQ 38).E5
         AIF   (&RECTYPE(&B) EQ 39).E5
         AIF   ('&T1' EQ 'TSO' OR '&T2' EQ 'TSO').E2
         AIF   ('&T1' EQ 'ALL' OR '&T2' EQ 'ALL').E2
         AIF   (&RECTYPE(&B) EQ 30).IFAS030
         AIF   (&RECTYPE(&B) EQ 31).IFAS031
         AIF   (&RECTYPE(&B) EQ 32).IFAS032
         AIF   (&RECTYPE(&B) EQ 33).IFAS033
         AIF   (&RECTYPE(&B) EQ 34).IFAS034
         AIF   (&RECTYPE(&B) EQ 35).IFAS035
         AIF   (&RECTYPE(&B) EQ 40).IFAS040
         AIF   (&RECTYPE(&B) EQ 41).IFAS041
         AIF   (&RECTYPE(&B) EQ 42).IFAS042
         AGO   .E5
.OUT     MEXIT
.IFAS000 ANOP
         EJECT
*  THIS DSECT DEFINES THE FORMAT FOR RECORD TYPE 0 (IPL RECORD)
*  RECORD LENGTH IS 27 BYTES
*
         DS    0F        ALIGN TO FULL WORD BOUNDARY
SMFRCD0  EQU   *         HEADER SEGMENT
SMF0LEN  DS    BL2'0'    RECORD LENGTH
SMF0SEG  DS    BL2'0'    SEGMENT DESCRIPTOR
SMF0FLG  DC    BL1'0'    HEADER FLAG BYTE
SMF0RTY  DC    BL1'0'    RECORD TYPE 0
SMF0TME  DC    4BL1'0'   TOD, USING FORMAT FROM TIME MACRO W/BIN. INTVL
SMF0DTE  DC    PL4'0000'      DATE IN PACKED DECIMAL FORM: 00YYDDDF
*                             ( F IS A SIGN)
SMF0SID  DC    2CL1' '   SYSTEM IDENTIFICATION
SMF0MOD  DC    2CL1' '   MODEL NO.
SMF0JWT  DC    4BL1'0'   JOB WAIT TIME DEFAULT VALUE IN MINUTES(BINARY)
SMF0BUF  DC    4BL1'0'   SMF BUFFER SIZE IN BYTES(BINARY)
SMF0VST  DC    4BL1'0'   VIRTUAL STORAGE SIZE IN K BLOCKS(BINARY)XM4432
SMF0OPT  DC    BL1'0'    OPTIONS BYTE:
*              BIT0 - SYSTEM & JOB DATA TO BE COLLECTED
*              BIT1 - SYSTEM, JOB, & STEP DATA TO BE COLLECTED
*              BIT2 - EXITS REQUESTED
*              BIT3 - DATA SET ACCOUNTING
*              BIT4 - VOLUME ACCOUNTING
*              BIT5 - RESERVED(WAS ESV IN 14 AND 15)
*              BIT6 - TEMPORARY-DATA-SET SCRATCH RECORDS
*              BIT7 - =0 BACKGROUND JOB; =1 FOREGROUND JOB
SMF0RST  DC    4BL1'0'   REAL STORAGE SIZE IN K BLOCKS(BINARY)   XM4432
         AIF   (&SW1 EQ 0).CONTB
.IFAS001 ANOP
         EJECT
*
* THIS RECORD IS WRITTEN AFTER EVERY IPL AND AT THE FIRST JOB/STEP
* TERMINATION AFTER THE EXPIRATION OF ONE 10 MINUTE INTERVAL.
* RECORD LENGTH  IS  54 BYTES.
*
         DS    0F        ALIGN TO FULL WORD BOUNDARY
SMFRCD1 EQU    *         HEADER SEGMENT
SMF1LEN  DS    BL2'0'    RECORD LENGTH
SMF1SEG  DS    BL2'0'    SEGMENT DESCRIPTOR
SMF1FLG  DC    BL1'0'    HEADER FLAG BYTE
SMF1RTY  DC    BL1'0'    RECORD TYPE 1
SMF1TME  DC    4BL1'0'   TOD, USING FORMAT FROM TIME MACRO W/BIN. INTVL
SMF1DTE  DC    PL4'0000'      DATE IN PACKED DECIMAL FORM: 00YYDDDF
*                             ( F IS A SIGN)
SMF1SID  DC    2CL1' '   SYSTEM IDENTIFICATION
SMF1MOD  DC    2CL1' '   MODEL NO.
SMF1SWT  DC    4BL1'0'       SYSTEM WAIT TIME IN HUNDREDTHS OF SECONDS
*                            COLLECTED DURING EXPIRED 10 MINUTE
*                            INTERVALS SINCE LAST WAIT TIME RECORD
SMF1TEXP DC    4BL1'0'   COLLECTION END TIME
SMF1PGIN DC    4BL1'0'   TOTAL PAGE-INS
SMF1PGOT DC    4BL1'0'   TOTAL PAGE-OUTS
SMF1PGRL DC    4BL1'0'   TOTAL PAGES RECLAIMED
SMF1RGNS DC    4BL1'0'   TOTAL REGIONS SWAPPED (AOS/2 ONLY)
SMF1SPIN DC    4BL1'0'   SWAP PAGE-INS
SMF1SPOT DC    4BL1'0'   SWAP PAGE-OUTS
SMF1RGNM DC    4BL1'0'   REGIONS MIGRATED
SMF1PGM  DC    4BL1'0'   PAGES MIGRATED
         AIF   (&SW1 EQ 0).CONTB
.IFAS002 ANOP
         EJECT
* THIS RECORD IS WRITTEN BY THE SMF DUMP UTILITY PROGRAM AT THE
* BEGINNING OF A DUMP DATA SET. RECORD LENGTH IS 14 BYTES
*
         DS    0F        ALIGN TO FULL WORD BOUNDARY
SMFRCD2  EQU   *         HEADER SEGMENT
SMF2LEN  DS    BL2'0'    RECORD LENGTH
SMF2SEG  DS    BL2'0'    SEGMENT DESCRIPTOR
SMF2FLG  DC    BL1'0'    HEADER FLAG BYTE
SMF2RTY  DC    BL1'0'    RECORD TYPE 2
SMF2TME  DC    4BL1'0'   TOD, USING FORMAT FROM TIME MACRO W/BIN. INTVL
SMF2DTE  DC    PL4'0000'      DATE IN PACKED DECIMAL FORM: 00YYDDDF
*                             ( F IS A SIGN)
SMF2SID  DC    2CL1' '   SYSTEM IDENTIFICATION
SMF2MOD  DC    2CL1' '   MODEL NO.
         AIF   (&SW1 EQ 0).CONTB
.IFAS003 ANOP
         EJECT
* THIS RECORD  IS WRITTEN BY THE SMF DUMP UTILITY PROGRAM AT THE END
* OF A DUMP DATA SET. RECORD LENGTH IS  14 BYTES.
*
         DS    0F        ALIGN TO FULL WORD BOUNDARY
SMFRCD3  EQU   *         HEADER SEGMENT
SMF3LEN  DS    BL2'0'    RECORD LENGTH
SMF3SEG  DS    BL2'0'    SEGMENT DESCRIPTOR
SMF3FLG  DC    BL1'0'    HEADER FLAG BYTE
SMF3RTY  DC    BL1'0'    RECORD TYPE 3
SMF3TME  DC    4BL1'0'   TOD, USING FORMAT FROM TIME MACRO W/BIN. INTVL
SMF3DTE  DC    PL4'0000'      DATE IN PACKED DECIMAL FORM: 00YYDDDF
SMF3SID  DC    2CL1' '   SYSTEM IDENTIFICATION
SMF3MOD  DC    2CL1' '   MODEL NO.
         AIF   (&SW1 EQ 0).CONTB
.IFAS004 ANOP
         EJECT
* THIS RECORD IS WRITTEN AT NORMAL OR ABNORMAL TERMINATION OF A JOB
* STEP.RECORD LENGTH IS VARIABLE.
*
         DS    0F        ALIGN TO FULL WORD BOUNDARY
SMFRCD4  EQU   *         HEADER SEGMENT
SMF4LEN  DS    BL2'0'    RECORD LENGTH
SMF4SEG  DS    BL2'0'    SEGMENT DESCRIPTOR
SMF4FLG  DC    BL1'0'    HEADER FLAG BYTE
SMF4RTY  DC    BL1'0'    RECORD TYPE 4
SMF4TME  DC    4BL1'0'   TOD USING FORMAT FROM TIME MACRO W/BIN. INTVL.
SMF4DTE  DC    PL4'0000' DATE IN PACKED DECIMAL FORM: OOY4DDDF
SMF4SID  DC    2CL1' '   SYSTEM IDENTIFICATION
SMF4MOD  DC    2CL1' '   MODEL NUMBER
SMF4JBN  DC    8CL1' '   JOB NAME
SMF4RST  DC    4BL1'0'   READER START TIME (IN 100THS SECONDS)
SMF4RDS  DC    PL4'0000' READER START DATE
SMF4UIF  DC    8CL1' '   USER IDENTIFICATION FIELD
SMF4STN  DC    BL1'0'    STEP NUMBER
SMF4SIT  DC    4BL1'0'   STEP INITIATION TIME (IN 100THS SECONDS)
SMF4STID DC    PL4'0000' STEP INITIATION DATE (PACKED DECIMAL FORMAT)
SMF4NCI  DC    4BL1'0'   NUMBER OF CARD IMAGES IN DD DATA OR DD  *
*                        DATA SETS
SMF4SCC  DC    2BL1'0'   STEP COMPLETION CODE