./       ADD   SEQFLD=774,LIST=ALL,NAME=U620354M
         MACRO
&NAME    RETURNA &REG1=,&RC=
&NAME    L     13,4(13)
         L     14,12(13)
         AIF   (T'&RC EQ 'O').A
         LA    15,&RC
         AGO   .B
.A       L     15,16(13)
.B       L     0,20(13)
         AIF   (T'&REG1 EQ 'O').C
         LA    R1,&REG1
         AGO   .D
.C       L     1,24(13)
.D       LM    2,12,28(13)
         BR    14
         MEND
