./       ADD   SEQFLD=774,LIST=ALL,NAME=U620353M
         MACRO
&NAME    DATEA &DATE,&TIME,&M
         AIF   (T'&DATE NE 'O').ST
         MNOTE 8,'MISSING OPERAND'
         MEXIT
.ST      CNOP  0,4
&NAME    LA    1,2
         SVC   11
         MVC   *+128(2),*+176
         ST    1,*+100
         UNPK  *+100(7),*+96(4)
         MVC   &DATE+6(2),*+96
         MVI   &DATE+5,C'/'
         PACK  *+91(4),*+86(2)
         DP    *+85(4),*+89(1)
         CP    *+82(1),*+84(1)
         BNE   *+10
         AP    *+80(2),*+75(1)
         LA    1,*+70
         CP    *+50(2),0(2,1)
         BNH   *+18
         SP    *+40(2),0(2,1)
         LA    1,4(1)
         B     *-20
         MVC   &DATE+3(2),2(1)
         MVI   &DATE+2,C'/'
         UNPK  &DATE.(2),*+16(2)
         OI    &DATE+1,X'F0'
         B     *+76
         DS    F
         DS    CL7
         DS    PL4
         DC    PL1'4'
         DC    PL1'0'
         DC    PL1'1'
         DC    PL2'31'
         DC    CL2'01'
         DC    PL2'28'
         DC    CL2'02'
         DC    PL2'31'
         DC    CL2'03'
         DC    PL2'30'
         DC    CL2'04'
         DC    PL2'31'
         DC    CL2'05'
         DC    PL2'30'
         DC    CL2'06'
         DC    PL2'31'
         DC    CL2'07'
         DC    PL2'31'
         DC    CL2'08'
         DC    PL2'30'
         DC    CL2'09'
         DC    PL2'31'
         DC    CL2'10'
         DC    PL2'30'
         DC    CL2'11'
         DC    PL2'31'
         DC    CL2'12'
         DC    PL2'999'
         DC    CL2'13'
         DC    PL2'28'
         AIF   (T'&TIME NE 'O').T
         AGO   .EX
.T       ST    R0,*-72
         UNPK  *-72(7),*-76(4)
         MVC   &TIME.(2),*-78
         MVI   &TIME+2,C'H'
         MVC   &TIME+3(2),*-86
         MVI   &TIME+5,C'M'
         MVC   &TIME+6(2),*-94
         MVI   &TIME+8,C'S'
         AIF   (T'&M EQ 'O').EX
         MVI   &TIME+2,C'.'
         MVI   &TIME+5,C'.'
         MVI   &TIME+8,C' '
.EX      ANOP
         MEND
