         MACRO
         SUBR  &NAME,&ID,&RENT=NO,&SP=0,&LV=0
         ENTRY &NAME
&NAME    CSECT
         SAVE  (14,12),,*
         AIF   ('&ID' EQ '').SKIPID
         MVC   0(2,13),2(15)   TRANSFER CALL ID
.SKIPID  BALR  12,0
         USING *,12
         LR    2,13            REMEMBER SAVE ADDRESS
         AIF   ('&RENT' EQ 'YES').RENT
         CNOP  0,4
         BAL   13,*+76         GET AND BRANCH ROUND OUR SAVE AREA
         DC    18F'0'          SAVE BLOCK
         AGO   .CHAIN
.RENT    ANOP
*        GETMAIN RU,LV=&LV+72,RELATED='SAVE AREA',SP=&SP
         GETMAIN RU,LV=&LV+72,RELATED='SAVE AREA',SP=&SP
         LR    13,1            GET SAVE AREA ADDRESS
         L     1,24(2)         RECOVER CONTENTS OF R1
.CHAIN   ST    13,8(2)         CHAIN
         ST    2,4(13)                TOGETHER
         AIF   ('&LV' EQ '0').NOLV
         LA    0,72(13)
.NOLV    MEND
