         MACRO
&NAME    GOODBY &RC=,&RENT=NO,&SP=0,&LV=0
         AIF   ('&NAME' EQ '').NONAME
&NAME    EQU   *
.NONAME  AIF   ('&RENT' EQ 'NO').L13
         LR    1,13
         L     13,4(13)
*        FREEMAIN RU,RELATED='SAVE AREA',SP=&SP,LV=&LV+72,A=(1)
         FREEMAIN RU,RELATED='SAVE AREA',SP=&SP,LV=&LV+72,A=(1)
         AGO   .REGA
.L13     L     13,4(13)        RECOVER PREVIOUS SAVE AREA
.REGA    AIF   ('&RC' EQ '').LM
         AIF   ('&RC'(1,1) EQ '(').REG15
         LA    15,&RC          LOAD RETURN CODE
         AGO   .SPECLM
.REG15   AIF   (&RC(1) EQ 15).SPECLM
         LR    15,&RC          GET RETURN CODE
.SPECLM  LM    0,12,20(13)     RESTORE REGISTERS
         L     14,12(13)       GET RETURN ADDRESS
         AGO   .RETN
.LM      LM    14,12,12(13)    RESTORE REGISTERS
.RETN    BR    14
         MEND
