         MACRO
&NAME    CPINIT &IOPL=NO,&PCL=NONE,&DYN=NO,&PREFIX=IPG
         GBLC  &GIOPL
         GBLC  &GPCL
         GBLC  &GDYN
         GBLC  &P
         LCLA  &A
.*   CHECK THE VALIDITY OF THE PREFIX (MUST BE <= 3 CHARS)
         AIF   (K'&PREFIX LE 3).PFXOK
         MNOTE 8,'PREFIX > 3 CHARS, SHORTENED'
&P       SETC  '&PREFIX'(1,3)
         AGO   .PFXEND
.PFXOK   ANOP
&P       SETC  '&PREFIX'
.PFXEND  ANOP
&GIOPL   SETC  '&IOPL'
&GPCL    SETC  '&PCL'
&GDYN    SETC  '&DYN'
&NAME    CSECT
.*   GENERATE REG EQUATES
&A       SETA  0
.LOOP    ANOP
R&A      EQU   &A
&A       SETA  &A+1
         AIF   (&A LT 16).LOOP
.*   GENERATE THE INITIALIZATION CODE
         MNOTE *,'       SAVE  (14,12),,*'
         SAVE  (14,12),,*
         LR    R10,R15        INITIALIZE BASE REG
         USING &NAME,R10      ESTABLISH ADDRESSIBILITY
         MNOTE *,'       GETMAIN R,LV=&P.LEN,SP=0'
         GETMAIN R,LV=&P.LEN,SP=0
         ST    R13,4(R1)     SAVE THE BACK CHAIN
         ST    R1,8(R13)
         LR    R13,R1         R13 => DYNAMIC STORAGE
         USING &P.DATA,R13
******************************************
*  INITIALIZE THE CONTROL BLOCKS         *
******************************************
         L     R1,4(R13)
         L     R1,24(R1)      R1 => CPPL
         USING CPPL,R1
         AIF   ('&IOPL' EQ 'NO').NOIOPL
*  FILL IN THE UPT, ECT, AND ECB FIELDS OF THE IOPL
.*   AND LEAVE THE POINTER TO THE PARM BLOCK EMPTY
         MVC   &P.IOPL+(IOPLUPT-IOPL)(4),CPPLUPT
         MVC   &P.IOPL+(IOPLECT-IOPL)(4),CPPLECT
         XC    &P.ECB(4),&P.ECB   ZERO THE ECB
         LA    R2,&P.ECB
         ST    R2,&P.IOPL+(IOPLECB-IOPL)
.NOIOPL  ANOP
         AIF   ('&PCL' EQ 'NONE').NOPCL
*  FILL IN ALL THE FIELDS OF THE PARSE PARAMETER LIST (PPL)
         MVC   &P.PPL+(PPLUPT-PPL)(4),CPPLUPT
         MVC   &P.PPL+(PPLECT-PPL)(4),CPPLECT
         LA    R2,&P.ECB
         ST    R2,&P.PPL+(PPLECB-PPL)
         L     R2,&P.PCLAD
         ST    R2,&P.PPL+(PPLPCL-PPL)
         LA    R2,&P.ANS
         ST    R2,&P.PPL+(PPLANS-PPL)
         MVC   &P.PPL+(PPLCBUF-PPL),CPPLCBUF
         XC    &P.PPL+(PPLUWA-PPL),&P.PPL+(PPLUWA-PPL)
.NOPCL   ANOP
         AIF   ('&DYN' EQ 'NO').NODYN
*  FILL IN THE DYNAMIC ALLOCATION REQUEST BLOCK POINTER
         LA    R2,&P.RB
         ST    R2,&P.RBPTR
         OI    &P.RBPTR,S99RBPND
.NODYN   ANOP
         DROP  R1
         EJECT
         MEND
