++ PTF (UY38888)        /*    5752-SC1T3-ETI1106-SCP
//UY38888  JOB 5752-38888-0,SC1T3,MSGLEVEL=(1,1),CLASS=A     */  .
++ VER (Z038)
   FMID(ETI1106)
   PRE  (UY33687)
   SUP  (AY22935)
 /*
   PROBLEM DESCRIPTION(S):
     OY22935 -
       MSGIEV254 OR MSGIFO087 WHEN ASSEMBLING GTSIZE MACRO AFTER PTF
       UY33687                                    89/05/18 PTF PECHANGE
   COMPONENT:  5752-SC1T3-ETI1106
   APARS FIXED: OY22935
   SPECIAL CONDITIONS:
     ACTION:
       RE-ASSEMBLY OF THE TSO USERS PROGRAM MAY BE NECESSARY TO
       ACTIVATE THIS PTF IF THE MACRO(S) INCLUDED ARE USED.
   COMMENTS:
     CROSS REFERENCE-MODULE/MACRO NAMES TO APARS
      GTSIZE    OY22935

     CROSS REFERENCE-APARS TO MODULE/MACRO NAMES
      OY22935   GTSIZE

     THE FOLLOWING MODULES AND/OR MACROS ARE AFFECTED BY THIS PTF:

     MACROS
      GTSIZE

     LISTEND
 */.
++ HOLD(UY38888) SYS FMID(ETI1106) REASON(ACTION) DATE(89150)
   COMMENT
    (RE-ASSEMBLY OF THE TSO USERS PROGRAM MAY BE NECESSARY TO
     ACTIVATE THIS PTF IF THE MACRO(S) INCLUDED ARE USED.).
++ MAC      (GTSIZE  ) DISTLIB(ATSOMAC ) SYSLIB(MACLIB) .
         MACRO
&NAME    GTSIZE &A                      PROTOTYPE
.* NOCHANGE SHIPPED WITH JCLIN                                 @OY20024
.* C580000                                                     @OY22935
         AIF   ('&A' EQ '').PARMOK      IS OPERAND BLANK       @OY22935
.PARMBAD ANOP
         IHBERMAC 238
.* THIS CALL TO ERMAC SAYS 'EXCESS POSITIONAL PARMS.' NONE ARE ALLOWED.
         MEXIT                          EXIT
.PARMOK  ANOP
&NAME    SR    1,1                      PREPARE PARM
         LA    0,11                     LOAD ENTRY CODE
         SLL   0,24                     PUT ENTRY CODE IN LEFT MOST
         SVC   94                       ISSUE SVC
         MEND
