         MACRO
&NAME    CALLGEN &A,&B
         LCLA  &B1
         ACTR  200
&B1      SETA  1
         CNOP  0,4
&NAME    B     *+8
IHB&SYSNDX DC  V(PARM)
         BAL   1,IHB&SYSNDX.A
.LOOP    AIF   (&B1 EQ &B).FINAL
         DC    A(&A&B1)
&B1      SETA  &B1+1
         AGO   .LOOP
.FINAL   DC    X'80'
         DC    AL3(&A&B)
IHB&SYSNDX.A L 15,IHB&SYSNDX
         BALR  14,15
         MEND
