         PRINT OFF
         MACRO
&NAME    INIT &BASE=3,&REGS=Y,&PATCH=3,&RENT=N,&SAVE=Y
         AIF   ((&BASE LT 13) AND (&BASE GT 1)).N020
         MNOTE 12,'INVALID BASE REGISTER'
         MEXIT
.N020    ANOP
         PUSH  PRINT
         PRINT ON,GEN
         EJECT
&SYSECT  CSECT
         USING *,15
         B     BEGIN
         DC    AL1(24)
         DC    CL8'&SYSECT'
         DC    CL16'-&SYSDATE-&SYSTIME'
         AIF   ('&RENT' EQ 'Y').N004
MYSAVE   DC    18F'-1'
.N004    ANOP
         AIF   ('&PATCH' EQ '0').N005
PATCH    DC    &PATCH.CL8'*PATCH*'
.N005    ANOP
         AIF   ('&REGS' EQ 'N').N030
         AIF   ('&REGS' EQ 'Y').N010
         MNOTE 4,'REGS OPERAND INVALID. Y SUBSTITUTED'
.N010    ANOP
R0       EQU   0
R1       EQU   1
R2       EQU   2
R3       EQU   3
R4       EQU   4
R5       EQU   5
R6       EQU   6
R7       EQU   7
R8       EQU   8
R9       EQU   9
R10      EQU   10
R11      EQU   11
R12      EQU   12
R13      EQU   13
R14      EQU   14
R15      EQU   15
.N030    ANOP
BEGIN    DS   0H
         STM   14,12,12(13)
         LR    &BASE,15
         DROP  15
         USING &SYSECT,&BASE
         AIF   ('&SAVE' EQ 'N').N003
         AIF   ('&RENT' EQ 'Y').N002
         AIF   ('&RENT' EQ 'N').N001
         MNOTE 4,'RENT OPERAND INVALID. N SUBSTITUTED'
.N001    ANOP
         ST    13,MYSAVE+4
         LR    15,13
         LA    13,MYSAVE
         ST    13,8(15)
         AGO   .N003
.N002    ANOP
         GETMAIN R,LV=72
         ST    13,4(1)
         ST    1,8(13)
         LR    13,1
.N003    ANOP
         POP   PRINT
         EJECT
         MEND
         PRINT ON
*  MODULE NAME:         VSAMLST3     (REL. 1.1  08/10/79)
*
*  MODULE DESCRIPTION:  VSAM CATALOG LIST UTILITY - SUMMARY REPORT
*
*  RETURN LINKAGE:      RETURN (14,12),RC=0
*
*  LINKAGE TABLE:       NONE - SINGLE ENTRY
*
*  PARAMETERS:          R1 POINTS TO A PARAMETER LIST ALIGNED ON A
*                       FULL WORD BOUNDARY.
*                        WORD 1 - ADDRESS OF VSAM CATALOG NAME
*                        WORD 2 - ADDRESS OF CTLGPL-B
*                        WORD 3 - ADDRESS OF MSGFILE DCB
*                        WORD 4 - ADDRESS OF RPTFIL1 DCB
*                        WORD 5 - ADDRESS OF WORK AREA 'B'
*
*  EXIT:                RC=00 - SUCCESSFUL
*
*  MODULE FUNCTION:     NORMAL MODE - R0=00
*                        FOR EACH VSAM ENTRY SPECIFIED IN THE PARAMETER
*                        LIST, THIS MODULE FORMATS IT FOR THE VSAM
*                        CATALOG SUMMARY REPORT.  FOR ENTRIES WITHOUT
*                        ANY VOLUME INFORMATIONS, IT WILL USE THEIR
*                        ASSOCIATED 'DATA' ENTRIES'.
*                       INIT MODE - R0=04
*                        FOR THE NEW VSAM CATALOG SPECIFIED IN THE
*                        PARAMETER LIST, THIS MODULE RESETS THE TITLES
*                        AND LINE COUNTS FOR THE NEXT REPORT.
*
*  CALLER:              VSAMLST2
*
*  CALLS:               NONE
*
*  SYSTEMS SERVICES:    PUT (QSAM), SVC 26
*
*  MODULE ENVIRONMENT:  OS/VS1, OS/VS2
         TITLE 'VSAMLST3 --- VSAM CATALOG LIST UTILITY SUMMARY REPORT GX
               ENERATOR (2.1)'
*        *-----------------------------------*
*        *   R E G I S T E R   U S A G E S   *
*        *-----------------------------------*
*
*  R0  -  STANDARD LINKAGE
*  R1  -  STANDARD LINKAGE (ADDR OF PARM LIST) & TEMP WORK SPACE
*  R2  -  TEMP WORK SPACE
*  R3  -  TEMP WORK SPACE
*  R4  -  TEMP WORK SPACE
*  R5  -  TEMP WORK SPACE
*  R6  -  NOT USED
*  R7  -  BASE REG FOR DSECT NMDSECT
*  R8  -  BASE REG FOR DSECT CTVOL
*  R9  -  BASE REG FOR DSECT CTLGPLB
*  R10 -  BASE REG FOR DSECT TXTSECT
*  R11 -  RETURN ADDR FOR SUBROUTINES
*  R12 -  BASE REG FOR CSECT VSAMLST3
*  R13 -  STANDARD LINKAGE (ADDR OF SAVE AREA)
*  R14 -  STANDARD LINKAGE (ADDR TO RETURN)
*  R15 -  STANDARD LINKAGE (ADDR OF ENTRY POINT & RETURN CODE)
         SPACE 3
VSAMLST3 CSECT
         INIT  BASE=12
***********************************************************************
*                                                                     *
*  2.1    SUMMARY REPORT GENERATOR                                    *
*                                                                     *
*     FUNCTION:  IF INIT MODE, SET TITLES AND RETURN.                 *
*                ELSE PROCESS ENTRY ACCORDING TO ITS TYPE.            *
*                                                                     *
*     ERRORS:  NONE                                                   *
*                                                                     *
***********************************************************************
         SPACE 3
VCL21    EQU   *
         MVC   PARM9421(20),0(R1)       SAVE 5 FULL WORDS PARM LIST
         SPACE
         L     R9,ACTPL21               ADDR OF CTLGPL-B
         USING CTLGPLB,R9
         MVC   CTGCCAT,CTGBCAT          ADDR OF CATACB
         MVC   CTGCWKB,AWORK21          ADDR OF WORK AREA 'B'
         MVC   CTGCPSWD,CTGBPSWD        ADDR OF PASSWORD
         SPACE
         LTR   R0,R0                    IS IT AN 'INIT' CALL?
         BNZ   INIT21                   YES - SET TITLES
         SPACE
         LA    R10,LINE                 SET BASE REG FOR DSECT TXTSECT
         USING TXTSECT,R10
         SPACE
         L     R1,CTGBAFL1              ADDR OF CTGFL-B1
         L     R1,20(,R1)               ADDR OF ENTRY TYPE
         MVC   ENTYPE,0(R1)             SAVE IT FOR CHECKING
         SR    R2,R2                    INDEX FOR BRANCH TABLE
         TRT   ENTYPE,RECTBL            SEE WHICH TYPE IT IS
         BZ    TYPE0                    TYPE 0 - UNDEFINED
         SPACE
         SLL   R2,2                     DISPLACEMENT OF BRANCH TABLE
RECTYP   B     RECTYP(R2)
         B     TYPEA                    TYPE 5
         B     TYPEB                    TYPE 4
         B     TYPEC                    TYPE 3
         B     TYPED                    TYPE 2
         B     TYPEG                    TYPE 3
         B     TYPEI                    TYPE 2
         B     TYPER                    TYPE 4
         B     TYPEU                    TYPE 5
         B     TYPEV                    TYPE 1
         B     TYPEX                    TYPE 6
         EJECT
*        *---------------------------------------*
*        *  INIT MODE - SET TITLES AND HEADINGS  *
*        *---------------------------------------*
         SPACE
INIT21   EQU   *
         TIME  DEC
         SPACE
         ST    R0,WORD                  WORD = X'HHMMSSTH'
         UNPK  WORK,WORD                WORK = C'0HHMMSS*'  *=X'HT'
         MVC   TIME1(2),WORK+1          SET HOURS
         MVI   TIME1+2,C':'
         MVC   TIME1+3(2),WORK+3        SET MINUTES
         SPACE
         ST    R1,WORK                  WORK = X'00YYDDDF'
         LA    R1,WORK+1                R1 = ADDR OF YYDDD
         BAL   R11,CNVDATE              CONVERT 'YYDDD' TO 'MM/DD/YY'
         MVC   DATE1,0(R1)
         SPACE 2
         L     R1,ACATN21               SET VSAM CATALOG NAME
         MVC   CATNAME2,0(R1)
         MVC   CATYPE2,=CL6'USER'       SET VSAM CATALOG TYPE
         SPACE
         L     R1,CTGBCAT
         L     R0,0(,R1)                ADDR OF THIS CATALOG'S ACB
         L     R1,16                    ADDR OF CVT
         L     R1,256(,R1)              ADDR OF AMCBS
         L     R1,8(,R1)                ADDR OF MASTER CATALOG'S ACB
         CLR   R0,R1                    IS THIS THE MASTER CATALOG?
         BNE   USERCTLG                 NO - MUST BE USER CATALOG
         MVC   CATYPE2,=CL6'MASTER'     YES - RESET IT
         EJECT
*        *---------------------*
*        *  INIT MODE - CONT.  *
*        *---------------------*
         SPACE
USERCTLG EQU   *
         LA    R1,CIZERO                ADDR OF CI NO. 0
         ST    R1,CTGCENT               SET CTLGPL-C
         MVI   CTGCRCTP,C'D'            FOR 'DATA' ENTRY
         MVI   CTGCFLDN,X'03'           INCLUDE 'CATVOL' ALSO
         LA    R1,REQUES10              'CATVOL'
         ST    R1,CTLGFLC3+8
         LA    R1,CTLGPLC
         SVC   26
         SPACE
         LTR   R15,R15                  IS SVC SUCCESSFUL?
         BZ    SVCOK211                 YES - CONTINUE
         SPACE
         ABEND 211,DUMP
         SPACE
SVCOK211 EQU   *
         MVI   CTGCRCTP,X'00'           RESET TO ANY ENTRY
         MVI   CTGCFLDN,X'02'           AND 'ENTYPE' & 'ENTNAME' ONLY
         L     R8,CTLGFLC3+20           ADDR OF CATVOL
         USING CTVOL,R8
         SPACE
         LA    R1,CTVDEVTP              ADDR OF 4-BYTES DEVICE TYPE
         BAL   R11,CNVDVTP              MAKE IT PRINTABLE
         MVC   DEVTYPE2,0(R1)           MOVE IT IN
         MVC   VOLSER2,CTVOLSER         VOLUME SERIAL NUMBER
         SPACE
         MVI   LINECNT+1,X'FF'          INDICATE NEW VSAM CATALOG
         B     GOHOME                   RETURN NOW
         EJECT
*        *----------------------*
*        *  TYPE 0 - UNDEFINED  *
*        *----------------------*
         SPACE
TYPE0    EQU   *
         L     R1,CTGBAFL2              ADDR OF CTLGFL-B2
         L     R1,20(,R1)               ADDR OF ENTRY NAME
         MVC   TXTENTRY,0(R1)
         MVI   TXTENTYP,C'('            TRANSLATE ENTRY TYPE INTO HEX
         UNPK  TXTENTYP+1(3),ENTYPE(2)
         TR    TXTENTYP+1(2),HEXTBL
         MVI   TXTENTYP+3,C')'
         BAL   R11,PUTRPT               PRINT IT AND
         B     GOHOME                   RETURN NOW
         SPACE 2
*        *----------------*
*        *  TYPE 1 - 'V'  *
*        *----------------*
         SPACE
TYPE1    EQU   *
TYPEV    EQU   *
         L     R1,CTGBAFL2              ADDR OF CTLGFL-B2
         L     R1,20(,R1)               ADDR OF ENTRY NAME
         MVC   TXTENTRY(6),0(R1)        ONLY THE FIRST 6 CHAR FOR 'V'
         MVC   TXTENTYP(5),=CL5'SPACE'  SET ENTRY TYPE
         BAL   R11,PUTRPT               PRINT IT
         B     GOHOME                   AND RETURN
         EJECT
*        *----------------------*
*        *  TYPE 2 - 'D' & 'I'  *
*        *----------------------*
         SPACE
TYPED    EQU   *
         MVC   TXTENTYP(4),=CL4'DATA'
         MVI   ENTYPE,X'02'
         B     TYPE2
         SPACE
TYPEI    EQU   *
         MVC   TXTENTYP(5),=CL5'INDEX'
         MVI   ENTYPE,X'02'
         B     TYPE2
         SPACE 2
*        *----------------------*
*        *  TYPE 3 - 'C' & 'G'  *
*        *----------------------*
         SPACE
TYPEC    EQU   *
         MVC   TXTENTYP(7),=CL7'CLUSTER'
         MVI   ENTYPE,X'03'
         BAL   R11,CHKCLSTR             CHECK IF PAGE SPACE OR CATALOG
         LTR   R15,R15                  IS IT A SPECIAL CLUSTER?
         BZ    TYPE2                    NO - PROCESS FOR CLUSTER
         MVI   ENTYPE,X'04'             YES - GET ASSOC ENTRIES ALSO
         B     TYPE2
         SPACE
TYPEG    EQU   *
         MVC   TXTENTYP(15),=CL15'ALTERNATE INDEX'
         MVI   ENTYPE,X'03'
         B     TYPE2
         EJECT
*        *----------------------*
*        *  TYPE 4 - 'B' & 'R'  *
*        *----------------------*
         SPACE
TYPEB    EQU   *
         MVC   TXTENTYP(3),=CL3'GDG'
         MVI   ENTYPE,X'04'
         B     TYPE2
         SPACE
TYPER    EQU   *
         MVC   TXTENTYP(4),=CL4'PATH'
         MVI   ENTYPE,X'04'
         B     TYPE2
         SPACE 2
*        *----------------------*
*        *  TYPE 5 - 'A' & 'U'  *
*        *----------------------*
         SPACE
TYPEA    EQU   *
         MVC   TXTENTYP(8),=CL8'NON VSAM'
         MVI   ENTYPE,X'05'
         B     TYPE2
         SPACE
TYPEU    EQU   *
         MVC   TXTENTYP(12),=CL12'USER CATALOG'
         MVI   ENTYPE,X'05'
         B     TYPE2
         SPACE 2
*        *----------------*
*        *  TYPE 6 - 'X'  *
*        *----------------*
         SPACE
TYPEX    EQU   *
         L     R1,CTGBAFL2              ADDR OF CTLGFL-B2
         L     R1,20(,R1)               ADDR OF ENTRY NAME
         MVC   TXTENTRY,0(R1)           SET ENTRY NAME
         SPACE
         MVC   TXTENTYP(5),=CL5'ALIAS'
         LA    R0,4                     ONLY THE FIRST ASSOC
         L     R1,CTGBAFL4              ADDR OF CTLGFL-B4 (NAMEDS)
         ST    R0,16(,R1)               CHANGE IT FROM 3 NAMEDS'ES TO 1
         MVI   ENTYPE,X'06'
         B     TYPE4
         EJECT
*        *---------------------------------------------------------*
*        *  COMMON FOR ALL TYPE 2 , TYPE 3, TYPE 4 AND TYPE 5      *
*        *  SET ENTRY NAME, OWNER ID, CREATION & EXPIRATION DATES  *
*        *---------------------------------------------------------*
         SPACE
TYPE2    EQU   *
         L     R1,CTGBAFL2              ADDR OF CTLGFL-B2
         L     R1,20(,R1)               ADDR OF ENTRY NAME
         MVC   TXTENTRY,0(R1)           SET ENTRY NAME
         SPACE
CHKEXPDT EQU   *
         L     R1,CTGBAFL5              ADDR OF CTLGFL-B5
         L     R1,20(,R1)               ADDR OF EXPIRATION DATE
         CLI   0(R1),X'FF'              IS THERE ONE?
         BE    CHKCREDT                 NO - SKIP MOVE
         CLC   CIZERO(2),0(R1)          IS IT A ZERO DATE?
         BNE   CNVEXPDT                 NO - CONVERT EXPIRATION DATE
         TM    2(R1),X'F0'              IS IT A ZERO DATE?
         BZ    CHKCREDT                 YES - SKIP MOVE
CNVEXPDT EQU   *
         BAL   R11,CNVDATE              NO - CONVERT IT TO 'MM/DD/YY'
         MVC   TXTEXPDT,0(R1)           MOVE IT
         SPACE
CHKCREDT EQU   *
         L     R1,CTGBAFL6              ADDR OF CTLGFL-B6
         L     R1,20(,R1)               ADDR OF CREATION DATE
         CLI   0(R1),X'FF'              IS THERE ONE?
         BE    CHKOWNER                 NO - SKIP MOVE
         BAL   R11,CNVDATE              YES - CONVERT IT TO 'MM/DD/YY'
         MVC   TXTCREDT,0(R1)           MOVE IT
         SPACE
CHKOWNER EQU   *
         L     R1,CTGBAFL7              ADDR OF CTLGFL-B7
         L     R1,20(,R1)               ADDR OF OWNER ID
         CLI   0(R1),X'FF'              IS THERE ONE?
         BE    CHKDEVOL                 NO - SKIP MOVE
         MVC   TXTOWNER,0(R1)           MOVE IT
         EJECT
*        *------------------------------------------------*
*        *  FOR TYPE 2 AND TYPE 5 ONLY                    *
*        *  SET DEVICE TYPE, VOLUME SERIAL & VOLUME STAT  *
*        *------------------------------------------------*
         SPACE
CHKDEVOL EQU   *
         CLI   ENTYPE,X'03'             IS THIS A TYPE-3 ENTRY?
         BE    TYPE3                    YES - GET THE ASSOC RECORDS
         CLI   ENTYPE,X'04'             IS THIS A TYPE-4 ENTRY?
         BE    TYPE4                    YES - GET THE ASSOC RECORDS
         SPACE
         L     R1,CTGBAFL8              ADDR OF CTLGFL-B8 (CATVOL)
         BAL   R11,SETVOLS              FORMATS AND PRINTS
         SPACE
         CLI   ENTYPE,X'05'             IS THIS A TYPE-5 ENTRY?
         BE    TYPE5                    YES - GET THE ASSOC RECORDS
         B     GOHOME                   NO - THAT'S ALL FOR TYPE 2
         EJECT
*        *-----------------------------------------------------------*
*        *  FOR TYPE 3 ONLY                                          *
*        *  SET THE ENTRY NAME(S) OF ALL ITS ASSOCIATED NON-'D' AND  *
*        *  NON-'I' RECORDS.  NO OTHER INFO'S ARE NEEDED.            *
*        *-----------------------------------------------------------*
         SPACE
TYPE3    EQU   *
         BAL   R11,PUTRPT               PRINT PRIMARY RECORDS
         SPACE
         USING NMDSECT,R7
         L     R1,CTGBAFL4              ADDR OF CTLGFL-B4
         L     R0,16(,R1)               LENGTH OF NAMEDS(ES)
         L     R7,20(,R1)               ADDR OF NAMEDS(ES)
         AR    R0,R7                    ADDR OF END OF NAMEDS(ES)
         ST    R0,EONMDS                UPPER LIMIT
         SPACE
NEXTNMDS EQU   *
         CLI   NMDSTYP,C'D'             IS IT FOR A TYPE 'D' ENTRY?
         BE    BUMPNMDS                 YES - BUMP TO NEXT 'NAMEDS' FLD
         CLI   NMDSTYP,C'I'             IS IT FOR A TYPE 'I' ENTRY?
         BE    BUMPNMDS                 YES - BUMP TO NEXT 'NAMEDS' FLD
         SPACE
         LA    R1,NMDSCIN               ADDR OF CI NUMBER
         ST    R1,CTGCENT               SET CTLGPL-C
         MVC   CTGCRCTP,NMDSTYP         SET REC TYPE IN CTGCOPT2
         LA    R1,CTLGPLC
         SVC   26
         SPACE
         LTR   R15,R15                  IS SVC SUCCESSFUL?
         BZ    SVCOK212                 YES - CONTINUE
         SPACE
         ABEND 212,DUMP
         SPACE
SVCOK212 EQU   *
         BAL   R11,FMTASSOC             FORMAT ASSOC ENTRY AND
         BAL   R11,PUTRPT               PRINT
         SPACE
BUMPNMDS EQU   *
         LA    R7,4(,R7)                ADD LENGTH OF NAMEDS
         C     R7,EONMDS                IS IT STILL WITHIN LIMIT?
         BL    NEXTNMDS                 YES - KEEP ON KEEPING ON
         MVI   CTGCRCTP,X'00'           RESET IT TO ANY ENTRY
         B     GOHOME
         SPACE
EONMDS   DC    F'-1'
         EJECT
*        *-----------------------------------------------------------*
*        *  FOR TYPE 4 AND TYPE 6 ONLY                               *
*        *  SET THE ENTRY NAME(S) OF ALL ITS ASSOCIATED RECORDS AND  *
*        *  NO OTHER INFO'S ARE NEEDED.                              *
*        *-----------------------------------------------------------*
         SPACE
TYPE4    EQU   *
         BAL   R11,PUTRPT               PRINT PRIMARY RECORDS
         SPACE
         L     R1,CTGBAFL4              ADDR OF CTLGFL-B4
         L     R0,16(,R1)               LENGTH OF NAMEDS(ES)
         LTR   R0,R0                    IS THERE ANY?
         BZ    GOHOME                   NO - THAT'S ALL THEN
         L     R7,20(,R1)               ADDR OF NAMEDS(ES)
         AR    R0,R7                    ADDR OF END OF NAMEDS(ES)
         ST    R0,EONMDS                UPPER LIMIT
         SPACE
NXTNMDS  EQU   *
         LA    R1,NMDSCIN               ADDR OF CI NUMBER
         ST    R1,CTGCENT               SET CTLGPL-C
         MVC   CTGCRCTP,NMDSTYP         SET REC TYPE IN CTGCOPT2
         LA    R1,CTLGPLC
         SVC   26
         SPACE
         LTR   R15,R15                  IS SVC SUCCESSFUL?
         BZ    SVCOK213                 YES - CONTINUE
         SPACE
         ABEND 213,DUMP
         SPACE
SVCOK213 EQU   *
         BAL   R11,FMTASSOC             FORMAT ASSOC ENTRY AND
         BAL   R11,PUTRPT               PRINT
         SPACE
         LA    R7,4(,R7)                ADD LENGTH OF NAMEDS
         C     R7,EONMDS                IS IT STILL WITHIN LIMIT?
         BL    NXTNMDS                  YES - KEEP ON KEEPING ON
         MVI   CTGCRCTP,X'00'           RESET IT TO ANY ENTRY
         B     GOHOME
         EJECT
*        *-----------------------------------------------------------*
*        *  FOR TYPE 5 ONLY                                          *
*        *  SET THE ENTRY NAME(S) OF ALL ITS ASSOCIATED RECORDS AND  *
*        *  THE ALIAS CHAIN.                                         *
*        *-----------------------------------------------------------*
         SPACE
TYPE5    EQU   *
         L     R1,CTGBAFL4              ADDR OF CTLGFL-B4
         L     R0,16(,R1)               LENGTH OF NAMEDS(ES)
         LTR   R0,R0                    IS THERE ANY?
         BZ    GOHOME                   NO - THAT'S ALL THEN
         L     R7,20(,R1)               ADDR OF NAMEDS(ES)
         AR    R0,R7                    ADDR OF END OF NAMEDS(ES)
         ST    R0,EONMDS                UPPER LIMIT
         SPACE
NXTNAMDS EQU   *
         LA    R1,NMDSCIN               ADDR OF CI NUMBER
         ST    R1,CTGCENT               SET CTLGPL-C
         CLI   NMDSTYP,C'X'             IS THIS AN 'ALIAS' ASSOC ENTRY?
         BE    XCHAIN                   YES - MUST BE LAST ENTRY
         MVC   CTGCRCTP,NMDSTYP         SET REC TYPE IN CTGCOPT2
         LA    R1,CTLGPLC
         SVC   26
         SPACE
         LTR   R15,R15                  IS SVC SUCCESSFUL?
         BZ    SVCOK214                 YES - CONTINUE
         SPACE
         ABEND 214,DUMP
         SPACE
SVCOK214 EQU   *
         BAL   R11,FMTASSOC             FORMAT ASSOC ENTRY AND
         BAL   R11,PUTRPT               PRINT
         SPACE
         LA    R7,4(,R7)                ADD LENGTH OF NAMEDS
         C     R7,EONMDS                IS IT STILL WITHIN LIMIT?
         BL    NXTNMDS                  YES - KEEP ON KEEPING ON
         MVI   CTGCRCTP,X'00'           RESET IT TO ANY ENTRY
         B     GOHOME
         SPACE
         DROP  R7
         EJECT
*        *------------------------------------------------------------*
*        *  PRINT THE ALIAS CHAIN - EACH TYPE 'X' ENTRY HAS FOLLOWING *
*        *  THREE (3) ASSOC 'NAMEDS' ENTRIES:                         *
*        *    1.  ASSOC TYPE 'A' OR 'U'                               *
*        *    2.  NEXT  TYPE 'X' ON THE CHAIN OR ZERO IF END OF CHAIN *
*        *    3.  LAST  TYPE 'X' ON THE CHAIN OR ZERO IF FIRST ONE    *
*        *------------------------------------------------------------*
         SPACE
XCHAIN   EQU   *
         MVI   CTGCRCTP,C'X'            SET CTLGPL-C
         MVI   CTGCFLDN,X'03'           INCLUDE CTLGFLC3
         LA    R1,REQUES05              'NAMEDS'
         ST    R1,CTLGFLC3+8
         SPACE
NEXTTYPX EQU   *
         LA    R1,CTLGPLC
         SVC   26
         SPACE
         LTR   R15,R15                  IS SVC SUCCESSFUL?
         BZ    SVCOK215                 YES - CONTINUE
         SPACE
         ABEND 215,DUMP
         SPACE
SVCOK215 EQU   *
         BAL   R11,FMTASSOC             FORMAT ASSOC ENTRY AND
         BAL   R11,PUTRPT               PRINT
         SPACE
         L     R1,CTLGFLC3+20           ADDR OF 'NAMEDS' FLD'S
         CLC   CIZERO,5(R1)             IS IT THE END OF ALIAS CHAIN?
         BE    EOXCHAIN                 YES - CLEAN UP AND GO HOME
         LA    R1,5(,R1)                ADDR OF CI NO. OF NEXT ALIAS
         ST    R1,CTGCENT               SET CTLGPL-C
         B     NEXTTYPX                 AND GO GET IT
         SPACE
EOXCHAIN EQU   *
         MVI   CTGCRCTP,X'00'           RESET IT TO ANY ENTRY TYPE
         MVI   CTGCFLDN,X'02'           'ENTYPE' & 'ENTNAME' ONLY
         B     GOHOME                   AND RETURN
         EJECT
*        ***************
*        *             *
*        *   E X I T   *
*        *             *
*        ***************
         SPACE
GOHOME   EQU   *
         L     R13,MYSAVE+4
         RETURN (14,12),RC=0
         SPACE 2
         LTORG
         SPACE
         DS    0H
         EJECT
*        *------------------------------------------------*
*        *  CHECK CLUSTER TO SEE IF CATALOG OR PAGESPACE  *
*        *  IN:     CTGBAFL3, CTGBAFL4                    *
*        *  OUT:    TXTENTYP IF SPECIAL CLUSTER           *
*        *          R15=04 IF SPECIAL CLUSTER             *
*        *------------------------------------------------*
         SPACE
CHKCLSTR EQU   *
         SR    R15,R15                  CLEAR RETURN CODE
         L     R1,CTGBAFL3              ADDR OF CTLGFL-B3
         L     R1,20(,R1)               ADDR OF 'CATTR' FIELD
         CLI   0(R1),X'00'              IS THERE A CLUSTER ATTRIBUTE?
         BE    NOCATTR                  NO - GO CHECK IF CATALOG
         SPACE
         LA    R15,4                    MARK AS SPECIAL CLUSTER
         TM    0(R1),X'02'              IS IT A SWAP SPACE?
         BZ    NOTSWAP                  NO - NEXT TEST
         MVC   TXTENTYP+8(7),=CL7'/ SWSPC'
         BR    R11                      RETURN 1
         SPACE
NOTSWAP  EQU   *
         TM    0(R1),X'01'              IS IT A PAGE SPACE?
         BZ    NOTPAGE                  NO - TRANSLATE IT IN HEX
         MVC   TXTENTYP+8(7),=CL7'/ PGSPC'
         BR    R11                      RETURN 2
         SPACE
NOTPAGE  EQU   *
         MVC   TXTENTYP+8(7),=CL7'/ AT=XX'
         UNPK  TXTENTYP+13(3),0(2,R1)
         TR    TXTENTYP+13(2),HEXTBL
         MVI   TXTENTYP+15,X'40'
         BR    R11                      RETURN 3
         SPACE
NOCATTR  EQU   *
         L     R1,CTGBAFL4              ADDR OF CTLGFL-B4
         L     R1,20(,R1)               ADDR OF 'NAMEDS' FIELDS
         CLC   CIZERO,1(R1)             IS THIS ENTRY A CATALOG NAME?
         BNER  R11                      NO - RETURN 4 - NORMAL
         MVC   TXTENTYP+8(7),=CL7'/ CATLG'
         LA    R15,4                    MARK AS SPECIAL CLUSTER
         BR    R11                      RETURN 5
         SPACE 2
         LTORG
         SPACE
         DS    0H
         EJECT
*        *--------------------------------------*
*        *  FORMAT ASSOC ENTRIES FROM CTLGPL-C  *
*        *  IN:     CTLGFLC1, CTLGFLC2          *
*        *  OUT:    TXTENTRY, TXTENTYP          *
*        *--------------------------------------*
         SPACE
FMTASSOC EQU   *
         L     R1,CTLGFLC2+20           ADDR OF 'ENTNAME'
         MVI   TXTENTRY+1,C'-'
         MVC   TXTENTRY+2,0(R1)
         SPACE
         L     R1,CTLGFLC1+20           ADDR OF 'ENTYPE'
         SR    R2,R2                    INDEX FOR ENTRY TYPE TABLE
         TRT   0(1,R1),RECTBL           SEE WHICH TYPE IT IS
         BZ    BADENTP                  TYPE 0 - UNDEFINED
         SPACE
         BCTR  R2,0                     LESS ONE
         SLL   R2,4                     TIMES SIXTEEN
         LA    R1,ENTTBL(R2)            ADDR OF ENTRY TYPE
         MVC   TXTENTYP,1(R1)
         BR    R11                      RETURN 1
         SPACE
BADENTP  EQU   *
         MVI   TXTENTYP,C'('            TRANSLATE ENTRY TYPE INTO HEX
         UNPK  TXTENTYP+1(3),ENTYPE(2)
         TR    TXTENTYP+1(2),HEXTBL
         MVI   TXTENTYP+3,C')'
         BR    R11                      RETURN 2
         EJECT
*        *-----------------------------------------------------------*
*        *  VOLUME INFO'S PROCESSING ROUTINE - FORMATS & PRINTS      *
*        *  IN:     R1 = ADDR OF 'CATVOL' CTLGFL                     *
*        *  OUT:    NONE                                             *
*        *  CALLS:  CNVDVTP, PUTRPT                                  *
*        *-----------------------------------------------------------*
         SPACE
SETVOLS  EQU   *
         ST    R11,SAVER11              SAVE RETURN ADDR
         L     R0,16(,R1)               LENGTH OF CATVOL(S)
         L     R8,20(,R1)               ADDR OF CATVOL(S)
         AR    R0,R8                    ADDR OF END OF CATVOL(S)
         ST    R0,EOCTVL                UPPER LIMIT
         SPACE
NEXTVOL  EQU   *
         LA    R1,CTVDEVTP              ADDR OF DEVICE CODE
         BAL   R11,CNVDVTP              CONVERT TO PRINTABLE FORM
         MVC   TXTDEVTP,0(R1)           MOVE IT IN
         MVC   TXTVOLSR,CTVOLSER        VOLUME SERIAL NUMBER
         SPACE
TSTPRIME EQU   *
         TM    CTVOLFLG,X'80'           IS IT PRIME?
         BZ    TSTCAND                  NO - NEXT TEST
         MVC   TXTSTATS,=CL5'PRIME'
         B     PRTLN2                   PRINT IT
         SPACE
TSTCAND  EQU   *
         TM    CTVOLFLG,X'40'           IS IT CANDIDATE?
         BZ    TSTOVFL                  NO - NEXT TEST
         MVC   TXTSTATS(4),=CL4'CAND'
         B     PRTLN2                   PRINT IT
         SPACE
TSTOVFL  EQU   *
         TM    CTVOLFLG,X'20'           IS IT OVERFLOW?
         BZ    BADVFLG                  NO - BAD VOLUME FLAG
         MVC   TXTSTATS(4),=CL4'OVFL'
         B     PRTLN2                   PRINT IT
         EJECT
*        *---------------------------*
*        *  CALL PUTRPT TO PRINT IT  *
*        *---------------------------*
         SPACE
BADVFLG  EQU   *
         MVI   TXTSTATS,C'('            TRANSLATE IT INTO HEX
         UNPK  TXTSTATS+1(3),CTVOLFLG(2)
         TR    TXTSTATS+1(2),HEXTBL
         MVI   TXTSTATS+3,C')'
         SPACE
PRTLN2   EQU   *
         BAL   R11,PUTRPT               PRINT THS LINE NOW
         LA    R8,15(,R8)               BUMP TO NEXT CATVOL
         C     R8,EOCTVL                IS IT STILL WITHIN LIMIT?
         BL    NEXTVOL                  YES - KEEP ON KEEPING ON
         SPACE
         L     R11,SAVER11              RESTORE RETURN ADDR
         BR    R11                      RETURN
         SPACE 2
SAVER11  DC    F'-1'
EOCTVL   DC    F'-1'
         SPACE
         LTORG
         SPACE
         DS    0H
         EJECT
*        *-------------------------------------*
*        *  PRINT ROUTINE FOR THE REPORT FILE  *
*        *-------------------------------------*
         SPACE
PUTRPT   EQU   *
         LH    R1,LINECNT               CURRENT NUMBER OF LINES ON PAGE
         CH    R1,LINEMAX               IS IT OVER THE LIMIT?
         BL    SAMEPAGE                 NO - IT'S STILL THE SAME PAGE
         SPACE 2
         AP    PAGECNT,=P'1'            YES - TIME FOR A NEW PAGE
         MVC   PAGE1,PAT3A
         ED    PAGE1,PAGECNT            SET NEW PAGE NUMBER
         L     R1,ARPTF21
         PUT   (1),TITLE1               PRINT TITLE 1
         SPACE
         L     R1,ARPTF21
         PUT   (1),TITLE2               PRINT TITLE 2
         SPACE
         L     R1,ARPTF21
         PUT   (1),HEADING1             PRINT HEADING
         SPACE
         L     R1,ARPTF21
         PUT   (1),HEADING2             PRINT UNDERSCORE
         SPACE
         MVI   CNTL,C'0'                SKIP 2 LINES FOR THE NEXT LINE
         LA    R1,7                     WE HAVE PRINTED 7 LINES ALREADY
         SPACE 2
SAMEPAGE EQU   *
         LA    R1,1(,R1)
         STH   R1,LINECNT               BUMP LINE COUNT
         L     R1,ARPTF21
         PUT   (1),OAREA
         SPACE
         MVI   CNTL,X'40'
         MVC   LINE,CNTL
         BR    R11
         EJECT
LINECNT  DC    H'0'
LINEMAX  DC    H'60'
PAGECNT  DC    PL2'0'
PAT3A    DC    XL4'40202120'
         SPACE
OAREA    DS    0CL133
CNTL     DC    X'40'
LINE     DC    CL132' '
         SPACE
         LTORG
         EJECT