         MACRO
&NAME    CALLM &SUB,                                                   X
               &PRM,&R1=,&INLINE=,&R0=,                                X
               &BNZ=,&BT=,&SYNCH=
         GBLB  &MODLEAF,&MODPMOD   8/26/76   BMOD ,L OR  BMOD ,P
         GBLB  &MODCMOD       12/2/76   INDICATE   BMOD ,C
.*   THIS MACRO IS PART OF A  BAL STRUCTURED PROGRAMMING PACKAGE
.*    WRITTEN BY  GARY S. NEMETH  OF THE CLEVELAND TRUST COMPANY
.*     DURING 1976.  ALL RIGHTS RESERVED.  ANY COMMERCIAL USE
.*      MUST BE APPROVED BY THE CLEVELAND TRUST COMPANY.
.* THIS MACRO MODIFIED AT RAINIER NATIONAL BANK
         AIF   (NOT(&MODLEAF OR &MODPMOD OR &MODCMOD)).CALLMOK
 MNOTE 0,'CALLM WILL NOT FUNCTION IN THIS TYPE OF BMOD.  GOOD LUCK.'
.CALLMOK ANOP  ,
&NAME    CALLX &SUB,&PRM,INLINE=&INLINE,R1=&R1,R0=&R0,                 X
               TYPE=I,        FORCE TYPE I/INSTRUCTION SO  BAL 14,&SUB X
               BNZ=&BNZ,BT=&BT,SYNCH=&SYNCH
         MEND
