         MACRO
&NAME    IFCASE &P1,&P2,&P3,&P4,&P5,&P6,&P7,&P8,&P9
         GBLA  &RNBN                            BLOCK NUMBER
         GBLA  &RNBL               LEVEL COUNTER, ALSO STACK INDEX
         GBLA  &RNBL2              LEVEL COUNTER, ALSO STACK INDEX
         GBLA  &STRUCN             LAST ASSIGNED BLOCK NUMBER
         GBLC  &THEN,&ELSE
         LCLC  &LBL
.*
         AIF   (&RNBL LE 0).OK             BLOCK OPEN IS VALID
.ERR     MNOTE 12,'** RNB ** STRUCTURE ERROR - CASE CAN NOT BE STACKED'
         AGO   .DONE2
.OK      ANOP
&RNBL2   SETA  0                   ZERO GLOBAL COUNTER FOR OTHERS
.RECOVER ANOP
&STRUCN  SETA  &STRUCN+1           BUMP BLOCK NUMBERER
&RNBN     SETA &STRUCN            SAVE BLOCK NUMBER
         AIF   ('&NAME' EQ '').NONAME
&NAME    DS   0H
.NONAME  ANOP  ,
         AIF   ('&P1' EQ '').DONE
&RNBL    SETA  &RNBL+1             PUSH
&LBL     SETC  'B'.'&STRUCN'.'&RNBL'
&THEN    SETC  '&LBL'.'T'
&ELSE    SETC  '&LBL'.'F'
      STRUCOND OR,&P1,CASE,                                            X
               TRUE=&THEN,FALSE=&ELSE,BLKTYPE=IF,DELIM=CASE
         AIF   ('&P2' EQ '').DONE
&RNBL    SETA  &RNBL+1             PUSH
&LBL     SETC  'B'.'&STRUCN'.'&RNBL'
&THEN    SETC  '&LBL'.'T'
&ELSE    SETC  '&LBL'.'F'
      STRUCOND OR,&P2,CASE,                                            X
               TRUE=&THEN,FALSE=&ELSE,BLKTYPE=IF,DELIM=CASE
         AIF   ('&P3' EQ '').DONE
&RNBL    SETA  &RNBL+1             PUSH
&LBL     SETC  'B'.'&STRUCN'.'&RNBL'
&THEN    SETC  '&LBL'.'T'
&ELSE    SETC  '&LBL'.'F'
      STRUCOND OR,&P3,CASE,                                            X
               TRUE=&THEN,FALSE=&ELSE,BLKTYPE=IF,DELIM=CASE
         AIF   ('&P4' EQ '').DONE
&RNBL    SETA  &RNBL+1             PUSH
&LBL     SETC  'B'.'&STRUCN'.'&RNBL'
&THEN    SETC  '&LBL'.'T'
&ELSE    SETC  '&LBL'.'F'
      STRUCOND OR,&P4,CASE,                                            X
               TRUE=&THEN,FALSE=&ELSE,BLKTYPE=IF,DELIM=CASE
         AIF   ('&P5' EQ '').DONE
&RNBL    SETA  &RNBL+1             PUSH
&LBL     SETC  'B'.'&STRUCN'.'&RNBL'
&THEN    SETC  '&LBL'.'T'
&ELSE    SETC  '&LBL'.'F'
      STRUCOND OR,&P5,CASE,                                            X
               TRUE=&THEN,FALSE=&ELSE,BLKTYPE=IF,DELIM=CASE
         AIF   ('&P6' EQ '').DONE
&RNBL    SETA  &RNBL+1             PUSH
&LBL     SETC  'B'.'&STRUCN'.'&RNBL'
&THEN    SETC  '&LBL'.'T'
&ELSE    SETC  '&LBL'.'F'
      STRUCOND OR,&P6,CASE,                                            X
               TRUE=&THEN,FALSE=&ELSE,BLKTYPE=IF,DELIM=CASE
         AIF   ('&P7' EQ '').DONE
&RNBL    SETA  &RNBL+1             PUSH
&LBL     SETC  'B'.'&STRUCN'.'&RNBL'
&THEN    SETC  '&LBL'.'T'
&ELSE    SETC  '&LBL'.'F'
      STRUCOND OR,&P7,CASE,                                            X
               TRUE=&THEN,FALSE=&ELSE,BLKTYPE=IF,DELIM=CASE
         AIF   ('&P8' EQ '').DONE
&RNBL    SETA  &RNBL+1             PUSH
&LBL     SETC  'B'.'&STRUCN'.'&RNBL'
&THEN    SETC  '&LBL'.'T'
&ELSE    SETC  '&LBL'.'F'
      STRUCOND OR,&P8,CASE,                                            X
               TRUE=&THEN,FALSE=&ELSE,BLKTYPE=IF,DELIM=CASE
         AIF   ('&P9' EQ '').DONE
&RNBL    SETA  &RNBL+1             PUSH
&LBL     SETC  'B'.'&STRUCN'.'&RNBL'
&THEN    SETC  '&LBL'.'T'
&ELSE    SETC  '&LBL'.'F'
      STRUCOND OR,&P9,CASE,                                            X
               TRUE=&THEN,FALSE=&ELSE,BLKTYPE=IF,DELIM=CASE
.DONE    ANOP
         AIF   (&RNBL LE 0).ERR2           INVALID IFCASE CARD
&LBL     SETC   'B'.'&RNBN'.'&RNBL'.'N'
         B     &LBL
         AGO   .DONE2
.ERR2    MNOTE 12,'** RNB ** NO CASE CONDITIONS WERE GIVEN'
.DONE2   ANOP
         MEXIT
         MEND
