         MACRO
&NAME    THEN  &LABEL=YES
         GBLA  &STRUCQ(9)          SEQUENCE VALIDATION STACK
         GBLA  &STRUCB(9)          BLOCK NUMBER STACK
         GBLA  &STRUCL             LEVEL COUNTER, ALSO STACK INDEX
         GBLC  &THEN,&ELSE
         LCLC  &LBL
.*   THIS MACRO IS PART OF A  BAL STRUCTURED PROGRAMMING PACKAGE
.*    WRITTEN BY  GARY S. NEMETH  OF THE CLEVELAND TRUST COMPANY
.*     DURING 1976.  ALL RIGHTS RESERVED.  ANY COMMERCIAL USE
.*      MUST BE APPROVED BY THE CLEVELAND TRUST COMPANY.
.* THIS MACRO MODIFIED AT RAINIER NATIONAL BANK
         AIF   (&STRUCL LE 0).ERR            THEN IS IMPOSSIBLE
         AIF   (&STRUCQ(&STRUCL) EQ 21).OK   THEN IS REQUIRED, OK
&STRUCQ(&STRUCL) SETA 1     THEN * SET ELSE,ENDIF,BLOCKOPEN OK
.ERR     MNOTE 12,'STRUCTURE ERROR'
         MEXIT
.OK      ANOP
&THEN    SETC  ''
&ELSE    SETC  ''
&STRUCQ(&STRUCL) SETA 1    THEN * SET ELSE,ENDIF,BLOCKOPEN OK
&LBL     SETC  'B'.'&STRUCB(&STRUCL)'.'&STRUCL'.'T'
         AIF   ('&NAME' EQ '').NONAME
&NAME    DS   0H
.NONAME  ANOP
.*       AIF   ('&LABEL' NE 'YES').NOLABEL
&LBL     DS   0H
.NOLABEL ANOP
         MEXIT
         MEND
