         MACRO
&NAME    VMOD  &N
         GBLC  &MODVN
         GBLB  &MODRENT,&MODTASK
.*             GENERATE DATA AREA LABEL &NAME, &N FULLWORDS
.*   THIS MACRO IS PART OF A  BAL STRUCTURED PROGRAMMING PACKAGE
.*    WRITTEN BY  GARY S. NEMETH  OF THE CLEVELAND TRUST COMPANY
.*     DURING 1976.  ALL RIGHTS RESERVED.  ANY COMMERCIAL USE
.*      MUST BE APPROVED BY THE CLEVELAND TRUST COMPANY.
         AIF   (NOT &MODRENT).NRENT
&MODVN   DSECT
         AIF   ('&MODVN' EQ '&NAME').RENT2
&NAME    DS    &N.F
         MEXIT
.RENT2   DS    &N.F
         MEXIT
.NRENT   AIF   (NOT &MODTASK).NRNT
&MODVN   CSECT
         AIF   ('&MODVN' EQ '&NAME').NRENT2
&NAME    DC    &N.F'0'
         MEXIT
.NRENT2  DC    &N.F'0'
         MEXIT
.NRNT    ANOP
&NAME    DC    &N.F'0'
         MEND
