//SMFEXITS     JOB      MSGLEVEL=1                                     *
//                       *                                             C
//       THE SAMPLE SMF EXITS ARE - IEFUJV - JOB VALIDATION            C
//                                  IEFUJI - JOB INITIATION            C
//                                  IEFACTRT JOB TERMINATION           C
//                                  IEFUTL - TIME LIMIT                C
//                                  IEFU83 - SVC 83              Y01034*
//                                  IEFU29 - SMF WRITER EXIT   @Z40FPPF
//                       *                                             C
//         THERE IS NO EXAMPLE FOR IEFUSI, IEFUSO OR IEFUJP            *
//                                      *                              C
//       THEY ARE INTENDED TO DEMONSTRATE ONE FORM OF EXIT PROCESSING  C
//            AND ILLUSTRATE THE USE OF THE TEST PROGRAM,TESTEXIT.     C
//                       *                                             C
//       PROCEDURE:                                                    C
//             EACH EXIT ROUTINE WILL ASSEMBLE AND LINKEDIT INTO A     C
//               DATASET,EXITLIB,UNDER THEIR RESPECTIVE MEMBER NAMES.  C
//               THE NEXT JOB(TESTEXIT) WILL COMBINE THE EXIT ROUTINES C
//                WITH THE TEST PROGRAM.                               C
//                       *                                             C
//             IF THE SAMPLE ROUTINES ARE ACCEPTABLE FOR GENERAL SYSTEMC
//              IMPLEMENTATION,THE FOLLOWING ACTION IS REQUIRED TO     C
//              INCORPORATE THEM INTO AN EXISTING SYSTEM.              C
//                 1.REASSEMBLE EACH EXIT WITHOUT THE PRIVATE MACRO,   C
//                    SMFWTM.  THIS PRIVATE MACRO INTERFACES DIRECTLY  C
//                    WITH TESTEXIT.  THE STANDARD SMFWTM MACRO IS     C
//                    AVAILABLE IN SYS1.MACLIB.                        *
//                       *                                             C
//                 2.THE LINKEDIT PROCEDURE TO INCORPORATE THE SAMPLE  *
//                    EXIT MODULES IS IN THE SMF SRL GC35-0004.        *
//*    A006500,046500-046800,833100-840221                       Y01034
//IEFUJV    EXEC  ASMFCL
//ASM.SYSIN  DD  *
         TITLE 'IEFUJV'
         MACRO                GENERATES CALLING SEQUENCE FOR TSMFWTM
&NAME    SMFWTM &MSGAD
         AIF   ('&MSGAD' EQ '').E1                NO OPERAND
         AIF   ('&MSGAD' EQ '(1)').BAL            REG 1 ALREADY LOADED
         AIF   ('&MSGAD'(1,1) EQ '(').REGA        REG(NOT 1) SPECIFIED
         AGO   .LODIT                             ADDRESS SPECIFIED
.E1      MNOTE '* * * NO OPERAND SPECIFIED * * *'
         MEXIT
.BAL     ANOP
         CNOP  0,4
&NAME    BAL   15,*+8
.LIST    DC    V(TSMFWTM)                         ADDRESS OF TSMFWTM
         L     15,0(15)
         BALR  14,15
         MEXIT
.REGA    ANOP
&NAME    LR    1,&MSGAD(1)
         CNOP  0,4
         BAL   15,*+8
         AGO   .LIST
.LODIT   ANOP
&NAME    LA    1,&MSGAD
         CNOP  0,4
         BAL   15,*+8
         AGO   .LIST
         MEND
IEFUJV   CSECT
* STATUS - CHANGE LEVEL 1
* FUNCTION
*    THIS MODULE CHECKS A TWO CARD JOB CARD SEQUENCE TO
*    DETERMINE IF IT MEETS THE FOLLOWING REQUIREMENTS:
*    - FIRST CARD MUST HAVE AN 8 CHARACTER ACCOUNT NUMBER IN
*    COLUMNS 16-23. THIS ACCOUNT NUMBER WILL BE VALIDATED BY
*    SEARCHING A TABLE OF VALID ACCOUNT NUMBERS.
*    - SECOND CARD MUST CONTAIN THE PRTY, REGION AND TIME
*    PARAMETERS IN THAT ORDER. THE VALUES OF THESE PARAMETERS
*    WILL BE COMPARED WITH MAXIMUM VALUES IN A TABLE USING AN
*    INDEX DERIVED FROM THE ACCT #.
*    IF THESE REQUIREMENTS ARE NOT SATISFIED, THE JOB IS CANCELED.
*    THIS MODULE ALSO GETS THE TIME OF DAY AT WHICH THE JOB IS
*    ENQUEUED AND PUTS IT IN THE USER COMMUNICATIONS AREA WHERE
*    IT WILL BE USED BY THE JOB INITIATION ROUTINE (IEFUJI).
* ENTRY POINTS -
*         IEFUJV
* INPUT
*    REGISTER 1 POINTS TO A LIST OF 4 BYTE ADDRESSES FOR THE
*    FOLLOWING THREE PARAMETERS:
*    1 - 36 BYTES OF THE FOLLOWING JOB INFORMATION:
*    JOBNAME (8 BYTES)
*    TIME STAMP (8 BYTES)
*    SYSTEM ID (4 BYTES)
*    USER ID (8 BYTES)
*    USER COMMUNICATIONS AREA (4 BYTES)
*    ZERO FOR INITIAL ENTRY, FIRST BYTE IS USED AS A
*    BRANCH CODE WHEN PROCESSING THE JOB CARD SEQUENCE.
*    TIME OF DAY FOR JOB INITIATION ROUTINE IS PUT
*    HERE WHEN THE JOB ENQUEUE ENTRY IS TAKEN.
*    2 - 80 BYTES CONTAINING THE JCL STATEMENT IMAGE.
*    3 - 1 BYTE ENTRY CODE WITH ONE OF THE FOLLOWING VALUES:
*    0 - NULL STATEMENT
*    1 - JOB STATEMENT
*    2 - EXEC STATEMENT
*    4 - DD STATEMENT
*    8 - PROC STATEMENT
*    16 - JOB ENQUEUE (SECOND PARAMETER IS MEANINGLESS)
* OUTPUT
*    REGISTER 15 MUST CONTAIN ONE OF THE FOLLOWING RETURN CODES:
*    0 - CONTINUE PROCESSING
*    4 - CANCEL
* EXTERNAL REFERENCES - NONE
* EXITS,NORMAL - RETURN TO CALLER
* EXITS,ERROR - NONE
* TABLES/WORK AREAS -
*    TABLE - TAB OF VALID ACCT NOS.
*    RGNTBL - TAB OF VALID REGION SIZES
*    TIMETBL - TAB OF VALID TIME SPECS
* ATTRIBUTES - STANDARD
* CHARACTER CODE DEPENDENCY - NONE
* NOTES - GETMAIN FREEMAIN AND TIME MACROS USED
*        EJECT
REGA     EQU   2                       @ OF 36 BYTES OF JOB INFO
REGB     EQU   3                       @ OF 80 BYTE JCL STMT
REGC     EQU   4                       @ OF 1 BYTE ENTRY CODE TRY CODE
REGD     EQU   5                       WORK REG FOR BR CODE
REGE     EQU   6                       LOOP CONTROL
REGF     EQU   7                       LOOP CNTRL / WORK REG
REGG     EQU   8                       LOOP CONTROL
REGH     EQU   9                       BRANCH REG
REGEVEN  EQU   14
REGODD   EQU   15
D16      EQU   16                      DISP OF 16
L28      EQU   28                      LENGTH OF 28
D23      EQU   23                      DISP OF 23
R1       EQU   1                       REG 1
D1       EQU   1                       DISP OF 1
D2       EQU   2                       DISP OF 2
L2       EQU   2                       LENGTH OF 2
D22      EQU   22                      DISP OF 22
D7       EQU   7                       DISP OF 7
L7       EQU   7                       LENGTH OF 7
D240     EQU   240                     DISP OF 240
D21      EQU   21                      DISP OF 21
D5       EQU   5                       DISP OF 5
L5       EQU   5                       REG 5
D20      EQU   20                      DISP OF 20
D8       EQU   8                       DISP OF 8
L8       EQU   8                       LENGTH OF 8
L4       EQU   4                       LENGTH OF 4
D4       EQU   4                       DISP OF 4
D32      EQU   32                      DISP OF 32
D12      EQU   12                      DISP OF 12
R12      EQU   12                      REG 12
R14      EQU   14                      REG 14
R13      EQU   13                      REG 13
D0       EQU   0                       DISP OF 0
R0       EQU   0                       REG 0
R11      EQU   11                      REG 11
D15      EQU   15                      DISP OF 15
R15      EQU   15                      REG 15
M2       EQU   2                       MASK OF 2
X10      EQU   X'10'                   HEX 10
X01      EQU   X'01'
XF0      EQU   X'F0'
XF9      EQU   X'F9'
X00      EQU   X'00'
M4       EQU   4                       MASK OF 4
*-- --- --- --- --- --- --- --- --- --- --- --- --- --- --- --- --- --*
         USING *,R15
         B     HERE                    BRANCH AROUND MODULE NAME
         DC    CL8'IEFUJV'             MODULE NAME
HERE     STM   R14,R12,D12(R13)        STORE CALLERS REGS
         DROP  R15
         BALR  R11,R0                  SET UP
         USING *,R11                   BASE
         LM    REGA,REGC,D0(R1)         GET PARAMETER ADDRESSES
         TM    D0(REGC),X10            TEST FOR JOB ENQUEUE ENTRY
         BO    JOBENQ                  PROCESS JOB ENQUEUE ENTRY
         TM    D0(REGC),X01            TEST FOR JOB CARD ENTRY
         BZ    OKEXIT                  NORMAL RETURN
         SR    REGC,REGC
         IC    REGC,D32(REGA)           GET CARD BRANCH CODE
         B     *+D4(REGC)              BRANCH TABLE
         B     ACCTCRD                 - TO ACCT CARD
         B     PARMCRD                 - TO PARAMETER CARD
         B     OKEXIT                  - TO NORMAL EXIT
*-- --- --- --- --- --- --- --- --- --- --- --- --- --- --- --- --- --*
*   PROCESS FIRST CARD OF JOB CARD SEQUENCE                           *
*-- --- --- --- --- --- --- --- --- --- --- --- --- --- --- --- --- --*
ACCTCRD  LM    REGE,REGG,LOOPCTL
NXTACCT  CLC   D15(L8,REGB),D0(REGG)      CHECK FOR VALID ACCOUNT NUM
         BE    OKACCT                  PROCESS ACCT NO.
         BXLE  REGG,REGE,NXTACCT       TEST NEXT ACCT NO.
         MVC   D20(L8,REGA),INVALID      INDICATE INVALID ACCT NO
         B     CANCEL                  CANCEL - INVALID ACCT NO.
OKACCT   MVC   D20(L8,REGA),D15(REGB)     PUT ACCT NUMBER IN USER ID
         LA    REGD,D4(R0)                SET BRANCH CODE FOR PARM CARD
         STC   REGD,D32(REGA)            STORE BRANCH CODE
         B     OKEXIT                  NORMAL RETURN
*-- --- --- --- --- --- --- --- --- --- --- --- --- --- --- --- --- --*
*   PROCESS SECOND CARD OF JOB CARD SEQUENCE                          *
*-- --- --- --- --- --- --- --- --- --- --- --- --- --- --- --- --- --*
PARMCRD  CLC   D15(L5,REGB),PRTYLTRL      CHECK FOR 'PRTY='
         BNE   CANCEL                  CANCEL - INVALID PRTY LITERAL
         LA    REGG,D20(REGB)            SET REGG TO 1ST DIGIT OF PRTY
         LA    REGF,D2(REGG)             SET LOOP CONTROL FOR DIGIT CK
         BAL   REGH,CKDGTS               CHECK DIGITS
         CLC   D0(L8,REGG),RGNLTRL        CHECK FOR ',REGION='
         BNE   CANCEL                    CANCEL - INVALID REGION LIT
         IC    REGE,D21(REGA)            GET MAX PRTY CODE FROM ACCT #
         LA    REGE,PRTYTBL-D240(REGE)
         EX    REGEVEN,CLIPRTY           CHECK FOR VALID PRTY CODE
         BL    CANCEL                    CANCEL - INVALID PRTY CODE
         LA    REGG,D8(REGG)             SET REGG TO FIRST DIGIT OF RGN
         LA    REGF,D5(REGG)             SET LOOP CONTROL FOR DIGIT CK
         BAL   REGH,CKDGTS             CHECK DIGITS
         CLC   D0(L7,REGG),TIMELTRL       CHECK FOR 'K,TIME='
         BNE   CANCEL                  CANCEL - INVALID TIME LITERAL
         IC    REGE,D22(REGA)            GET MAX REGION CODE FROM ACCT
         LA    REGF,D15
         NR    REGE,REGF                REMOVE ZONE BITS FROM CODE
         SLL   REGE,L2                   MULTIPLY CODE BY 4
         C     REGEVEN,RGNTBL(REGE)     DETERMINE IF THE SPECIFIED
*                                       REGION IS =< THE MAXIMUM FOR
*                                       THE SPECIFIC ACCT
         BH    CANCEL                  CANCEL - INVALID REGION FOR ACCT
         SR    REGD,REGD                ZERO TIME ACCUMULATION REGISTER
         LA    REGG,D7(REGG)             SET REGG TO 1ST CHAR OF TIME
         CLI   0(REGG),C'('             CHECK FOR TIME PARAM
         BNE   MINUTES                 PROCESS MINUTES
         SR    REGC,REGC                REGC IS USED AS A FLAG TO
*                                       INDICATE PARENTHESIS
         LA    REGG,D1(REGG)
         CLI   0(REGG),C','            CHECK FOR SECONDS PARAM
         BE    SECONDS                 PROCESS SECONDS
MINUTES  LA    REGF,D4(REGG)             SET LOOP CONTROL
         LR    REGB,REGG                SAVE ADDR OF 1ST CHAR OF TIME
         BAL   REGH,CKDGTS             CHECK DIGITS
         CR    REGB,REGG                TEST FOR NO DIGITS
         BE    CANCEL                  CANCEL - TOO MANY DIGITS
         SLL   REGEVEN,L8
         LR    REGD,REGEVEN             PUT MINUTES IN ACCUMULATION REG
         LTR   REGC,REGC                TEST PARENTHESIS FLAG
         BNZ   CKTIME                   BRANCH FOR NO PARENTHESIS
         CLI   0(REGG),C','            CHECK FOR SECONDS PARAM
         BE    SECONDS                 PROCESS SECONDS
         CLI   0(REGG),C')'            CHECK FOR ENDING PAREN
         BNE   CANCEL                  CANCEL - UNBALANCED PARENS
         B     CKTIME                  PROCESS TIME
SECONDS  LA    REGG,D1(REGG)
         LA    REGF,D2(REGG)             SET LOOP CONTROL
         BAL   REGH,CKDGTS             CHECK DIGITS
         CH    REGEVEN,MAXSEC          CHECK AMOUNT OF TIME
         BH    CANCEL                  CANCEL - TOO MUCH TIME SPEC.
         AR    REGD,REGEVEN             ADD SECONDS TO ACCUM. REG
CKTIME   IC    REGE,D23(REGA)            GET MAX TIME CODE FROM ACCT #
         LA    REGF,D15
         NR    REGE,REGF                REMOVE ZONE BITS FROM CODE
         SLL   REGE,L2                   MULTIPLY CODE BY FOUR
         C     REGD,TIMETBL(REGE)       CHECK MAX TIME FOR ACCT
         BH    CANCEL                 CANCEL - TOO MUCH TIME SPEC.
         LA    REGD,D8(R0)                SET BRANCH CODE FOR OKEXIT
         STC   REGD,D32(REGA)            STORE BRANCH CODE
         B     OKEXIT                 NORMAL RETURN
CKDGTS   SR    REGEVEN,REGEVEN
         LA    REGE,D1                   SET LOOP INCREMENT
NXTDGT   CLI   0(REGG),XF0            CHECK FOR NUMERIC CHARACTER
         BCR   M4,REGH                NOT NUMERIC
         CLI   0(REGG),XF9
         BC    M2,CANCEL              NOT NUMERIC
         IC    REGODD,0(REGG)
         SLL   REGODD,L28                ISOLATE AND SAVE DECIMAL PART
         SLDL  REGEVEN,L4                  OF EACH EBCDIC DIGIT
         BXLE  REGG,REGE,NXTDGT       TEST NEXT DIGIT
         B     CANCEL                   CANCEL IF TOO MANY DIGITS
CLIPRTY  CLI   0(REGE),X00
*-- --- --- --- --- --- --- --- --- --- --- --- --- --- --- --- --- --*
*   GET TIME OF DAY THAT JOB WAS ENQUEUED                             *
*-- --- --- --- --- --- --- --- --- --- --- --- --- --- --- --- --- --*
JOBENQ   GETMAIN    R,LV=8              GET AREA FOR TEMP STORAGE
         LR    REGB,R1
         TIME       BIN                 GET TIME OF JOB ENQUEUE
         ST    R0,D0(REGB)                PUT TIME IN INTERMEDIATE AREA
         MVC   D32(L4,REGA),0(REGB)       MOVE TIME TO USER COMM AREA
         FREEMAIN   R,LV=8,A=(REGB)
OKEXIT   SR    REGA,REGA               SET RETURN CODE TO ZERO
         B     EXIT                   RETURN
CANCEL   LA    REGA,D4(R0)               SET RETURN CODE TO FOUR
EXIT     ST    REGA,D16(R13)             PUT RETURN CODE IN SAVE AREA
         LM    R14,R12,D12(R13)
         BR    R14                    RETURN
*-- --- --- --- --- --- --- --- --- --- --- --- --- --- --- --- --- --*
*   DEFINE CONSTANTS AND TABLES FOR VALIDITY CHECKS                   *
*-- --- --- --- --- --- --- --- --- --- --- --- --- --- --- --- --- --*
LOOPCTL  DC    F'8'                   COUNT OF 8 FOR LOOPING
         DC    A(TABLEND)             @ OF END OF TABLE
         DC    A(TABLE)               @ OF BEGINNING OF TABLE
TABLE    DC    C'A2224567'            TAB OF VALID
         DC    C'B3235678'            ACCOUNT
         DC    C'C4444444'            NUMBERS
TABLEND  EQU   *-8
RGNTBL   DS    0F
         DC    X'00000032'            32 K
         DC    X'00000064'            64 K
         DC    X'00000128'            128 K
         DC    X'00000256'            256 K
         DC    X'00000512'            512 K
TIMETBL  DS    0F
         DC    X'00000030'              30 SECONDS
         DC    X'00000330'              3 MINUTES AND 30 SECONDS
         DC    X'00001000'              10 MINUTES
         DC    X'00003000'              30 MINUTES
         DC    X'00144000'              1440 MINUTES (NO TIME LIMIT)
         DS    0H
MAXSEC   DC    X'0059'                MAXIMUM SECONDS
PRTYTBL  DC    X'0102030413'          PRIORTY TABLE
PRTYLTRL DC    C'PRTY='               PRIORTY LITERAL
RGNLTRL  DC    C',REGION='            REGION LITERAL
TIMELTRL DC    C'K,TIME='             TIME LITERAL
INVALID  DC    C'INVALID '            INVALID LITERAL
         END
//LKED.SYSLMOD  DD  DSNAME=EXITLIB,VOLUME=SER=231400,UNIT=2314,        *
//             DISP=(NEW,KEEP),SPACE=(TRK,(5,1,2))
//LKED.SYSIN  DD  *
    NAME  IEFUJV
//IEFUJI  EXEC  ASMFCL
//ASM.SYSIN DD *
         TITLE 'IEFUJI'
         MACRO                GENERATES CALLING SEQUENCE FOR TSMFWTM
&NAME    SMFWTM &MSGAD
         AIF   ('&MSGAD' EQ '').E1                NO OPERAND
         AIF   ('&MSGAD' EQ '(1)').BAL            REG 1 ALREADY LOADED
         AIF   ('&MSGAD'(1,1) EQ '(').REGA        REG(NOT 1) SPECIFIED
         AGO   .LODIT                             ADDRESS SPECIFIED
.E1      MNOTE '* * * NO OPERAND SPECIFIED * * *'
         MEXIT
.BAL     ANOP
         CNOP  0,4
&NAME    BAL   15,*+8
.LIST    DC    V(TSMFWTM)                         ADDRESS OF TSMFWTM
         L     15,0(15)
         BALR  14,15
         MEXIT
.REGA    ANOP
&NAME    LR    1,&MSGAD(1)
         CNOP  0,4
         BAL   15,*+8
         AGO   .LIST
.LODIT   ANOP
&NAME    LA    1,&MSGAD
         CNOP  0,4
         BAL   15,*+8
         AGO   .LIST
         MEND
IEFUJI   CSECT
*C 365000,386000                                                 A48478
*C 234000                                                      @YM04803
* STATUS - CHANGE LEVEL 1
* FUNCTION
*    THIS MODULE CALCULATES THE AMOUNT OF TIME THAT A JOB WAS
*    ENQUEUED AWAITING INITIATION. THIS TIME AND THE EFFECTIVE JOB
*    PRIORITY ARE WRITTEN TO THE SMF DATA SET AS RECORD TYPE 128.
* ENTRY POINTS -
*         IEFUJI
* INPUT
*    REGISTER 1 POINTS TO A LIST OF 4 BYTE ADDRESSES FOR THE
*    FOLLOWING FOUR PARAMETERS:
*    1 - 36 BYTES OF THE FOLLOWING JOB INFORMATION:
*    JOBNAME (8 BYTES)
*    TIME STAMP (8 BYTES)
*    SYSTEM ID (4 BYTES)
*    USER ID (8 BYTES)
*    USER COMMUNICATIONS AREA (4 BYTES)
*    WHEN ENTERED, THIS FIELD CONTAINS THE TIME OF DAY
*    AT WHICH THE JOB WAS ENQUEUED (SUPPLIED BY THE
*    IEFUJV ROUTINE). THIS FIELD IS ZEROED BEFORE THE
*    ROUTINE IS EXITED.
*    2 - 20 BYTES CONTAINING THE PROGRAMMERS NAME
*    3 - 1 BYTE INDICATING THE EFFECTIVE JOB PRIORITY
*    4 - JOB ACCOUNTING FIELDS (NOT USED)
* OUTPUT
*    A 47 BYTE RECORD IS WRITTEN TO THE SMF DATA SET USING THE
*    SMFWTM MACRO. THE FORMAT OF THIS RECORD IS DESCRIBED BY THE
*    DSECT FOR THE SMF RECORD.
*    REGISTER 15 MUST CONTAIN ONE OF THE FOLLOWING RETURN CODES:
*    0 - CONTINUE PROCESSING
*    4 - CANCEL
* EXTERNAL REFERENCES -  NONE
* EXITS,NORMAL -  RETURN TO CALLER     RC=0
* EXITS,ERROR - RETURN TO CALLER    RC=4 - CANCEL REQUEST
* TABLES/WORK AREAS -  DSECT FOR SMF RECORD EMPLOYED
* ATTRIBUTES - STANDARD
* CHARACTER CODE DEPENDENCY - NONE
* NOTES - GETMAIN FREEMAIN SMFWTM AND TIME MACROS WERE USED
         EJECT
REGA     EQU   2                       @ OF 36 BYTES OF JOB INFO
REGC     EQU   4                       @ OF 1 BYTE WITH EFF JOB PRTY
REGD     EQU   5                       BASE REG FOR DSECT
D20      EQU   20                      DISP OF 20
L8       EQU   8                       LENGTH OF 8
L16      EQU   16                      LENGTH OF 16
L6       EQU   6                       LENGTH OF 6
L1       EQU   1                       LENGTH OF 1
M2       EQU   2                       MASK OF 2
D16      EQU   16                      DISP OF 16
D12      EQU   12                      DISP OF 12
D0       EQU   0                       DISP OF 0
D32      EQU   32                      DISP OF 32
R15      EQU   15                      REG 15
R14      EQU   14                      REG 14
R13      EQU   13                      REG 13
R12      EQU   12                      REG 12
R11      EQU   11                      REG 11
R0       EQU   0                       REG 0
R1       EQU   1                       REG 1
L4       EQU   4                       LENGTH OF 4
*-- --- --- --- --- --- --- --- --- --- --- --- --- --- --- --- --- --*
         USING *,R15
         B     HERE                   BRANCH AROUND MODULE NAME
         DC    CL8'IEFUJI'             MODULE NAME
HERE     STM   R14,R12,D12(R13)        SAVE REGS
         DROP  R15
         BALR  R11,R0                  SET UP BASE
         USING *,R11                   REGISTER
         LM    REGA,REGC,D0(R1)        GET PARAMETER ADDRESSES
         GETMAIN   R,LV=56             GET CORE FOR SMF RECORD   A48478
         LR    REGD,R1
         USING SMFDSECT,REGD           BASE FOR SMF DSECT
         TIME      BIN
         ST    R0,TIME                 TIME FOR SMF RECORD
         ST    R1,DATE                 DATE FOR SMF RECORD
         MVC   ENQTIME(L4),D32(REGA)   GET JOB ENQUEUE TIME
         XC    D32(L4,REGA),D32(REGA)  ZERO COMMUNICATIONS WORD
         C     R0,ENQTIME              CHECK FOR A NEW DAY
         BC    M2,SAMEDAY              ENQUEUED SAME DAY
         A     R0,HR24                 ADD 24 HOURS (86400 SECONDS)
SAMEDAY  S     R0,ENQTIME              DETERMINE TIME JOB WAS ON QUEUE
         ST    R0,ENQTIME              PUT TIME IN SMF RECORD
         MVC   PRTY(L1),D0(REGC)       GET PRIORITY CODE
         MVC   SYSID(L4),D16(REGA)     GET SYSTEM ID
         MVC   HEADER(L6),SMFRCD       GET HEADER
         MVC   JOBLOG(L16),D0(REGA)    GET JOB LOG
         MVC   USERID(L8),D20(REGA)    GET USER ID
         LA    R1,SMFOUT               GET SMF BUFFER @
         SMFWTM    (1)                 WRITE SMF RECORD TYPE 128
         LR    R1,REGD
         FREEMAIN  R,LV=56,A=(1)                                 A48478
         LM    R14,R12,D12(R13)        RESTORE REGS
         XR    R15,R15                 SET RETURN CODE TO ZERO
         BR    R14                     RETURN
*-- --- --- --- --- --- --- --- --- --- --- --- --- --- --- --- --- --*
*   DEFINE DATA CONSTANTS                                             *
*-- --- --- --- --- --- --- --- --- --- --- --- --- --- --- --- --- --*
HR24     DC    F'8640000'              24 HRS IN SECS
SMFRCD   DC    X'002F00000280'         SMF RECORD              @YM04803
*-- --- --- --- --- --- --- --- --- --- --- --- --- --- --- --- --- --*
*   DEFINE DSECT FOR JOB INITIATION RECORD (TYPE X'80')               *
*-- --- --- --- --- --- --- --- --- --- --- --- --- --- --- --- --- --*
SMFDSECT DSECT
         DS    1H                      ALIGN TIME/DATE ON FWD
SMFOUT   EQU   *
HEADER   DS    6C                      HEADER
TIME     DS    1F                      TIME
DATE     DS    1F                      DATE
SYSID    DS    1F                      SYSTEM ID
JOBLOG   DS    4F                      JOB LOG
USERID   DS    2F                      USER ID
ENQTIME  DS    1F                      ENQUEUE TIME
PRTY     DS    1C                      PRIORTY
         END
//LKED.SYSLMOD DD DSNAME=EXITLIB,VOLUME=SER=231400,UNIT=2314,DISP=OLD
//LKED.SYSIN  DD *
     NAME IEFUJI
//IEFACTRT EXEC ASMFCL
//ASM.SYSIN DD *
         TITLE 'IEFACTRT'
         MACRO                GENERATES CALLING SEQUENCE FOR TSMFWTM
&NAME    SMFWTM &MSGAD
         AIF   ('&MSGAD' EQ '').E1                NO OPERAND
         AIF   ('&MSGAD' EQ '(1)').BAL            REG 1 ALREADY LOADED
         AIF   ('&MSGAD'(1,1) EQ '(').REGA        REG(NOT 1) SPECIFIED
         AGO   .LODIT                             ADDRESS SPECIFIED
.E1      MNOTE '* * * NO OPERAND SPECIFIED * * *'
         MEXIT
.BAL     ANOP
         CNOP  0,4
&NAME    BAL   15,*+8
.LIST    DC    V(TSMFWTM)                         ADDRESS OF TSMFWTM
         L     15,0(15)
         BALR  14,15
         MEXIT
.REGA    ANOP
&NAME    LR    1,&MSGAD(1)
         CNOP  0,4
         BAL   15,*+8
         AGO   .LIST
.LODIT   ANOP
&NAME    LA    1,&MSGAD
         CNOP  0,4
         BAL   15,*+8
         AGO   .LIST
         MEND
IEFACTRT CSECT
*A 541001                                                         M4736
*C 501500,508000,509500,510500                                   A40917
*D 542000-593000,637000,638000,659000-671000                     A40917
*A 523500,523600,526500-526984,641500-641700                     A40917
* STATUS - CHANGE LEVEL 1
* FUNCTION
*    THIS MODULE IS ENTERED AT JOB/STEP TERMINATION. IF THE
*    MODULE WAS ENTERED FOR STEP TERMINATION, THE CPU TIME IS
*    TIME IS EXAMINED FOR A FLUSH CONDITION.  IF THE STEP WAS
*    FLUSHED, THE SMF RECORD IS NOT PRINTED AND THE MODULE
*    RETURNS TO THE CALLING ROUTINE.  OTHERWISE,
*    THE SMF TERMINATION RECORD TYPE FIELD IS CHANGED AND
*    THE RECORD IS WRITTEN AS A USER RECORD BY THE SMFWTM MACRO.
*    IF THE RETURN CODE FROM THE MACRO INDICATES THAT THE RECORD
*    WAS NOT WRITTEN SUCCESSFULLY, A MESSAGE IS WRITTEN TO THE
*    CONSOLE INDICATING AN ERROR CONDITION.  FOR JOB
*    TERMINATION, A RECORD IS WRITTEN TO THE SYSOUT DATA SET USING
*    THE IEFYS ROUTINE.
* ENTRY POINTS -
*         IEFACTRT
* INPUT
*    REGISTER 0 CONTAINS A BINARY 16 IF THE MODULE WAS ENTERED
*    FOR JOB TERMINATION.  IT CONTAINS A BINARY 12 IF ENTERED
*    FOR STEP TERMINATION.
*    REGISTER 1 POINTS TO A LIST OF 4 BYTE ADDRESSES FOR THE
*    FOLLOWING TEN PARAMETERS:
*    1 - 36 BYTES OF THE FOLLOWING JOB INFORMATION:
*    JOBNAME (8 BYTES)
*    TIME STAMP (8 BYTES)
*    SYSTEM ID (4 BYTES)
*    USER ID (8 BYTES)
*    USER COMMUNICATIONS AREA (4 BYTES)
*    THIS FIELD IS ZEROED AT JOB TERMINATION.
*    2 - STEP NAME (ADDRESS IS ZERO FOR JOB TERM ENTRY)
*    3 - PROGRAMMERS NAME
*    4 - JOB EXECUTION TIME (NOT USED BY THIS ROUTINE)
*    5 - JOB ACCOUNTING FIELDS (NOT USED)
*    6 - STEP EXECUTION TIME
*    7 - STEP ACCOUNTING FIELDS (NOT USED)
*    8 - FLAGS AND STEP NUMBER (NOT USED)
*    9 - TERMINATION STATUS (NOT USED)
*    10 - SMF TERMINATION RECORD
*    REGISTER 0 CONTAINS ONE OF THE FOLLOWING ENTRY CODES:
*    12 - STEP TERMINATION ENTRY
*    16 - JOB TERMINATION ENTRY
* OUTPUT
*    THE JOB/STEP TERMINATION RECORD CREATED BY SMF IS WRITTEN TO
*    THE SMF DATA SET AFTER THE RECORD TYPE FIELD HAS BEEN
*    MODIFIED.
*    AT JOB TERM. THE RECORD DEFINED BY THE JOBMSG DSECT IS
*    WRITTEN TO THE SYSOUT DATA SET USING THE IEFYS ROUTINE.
*    AN ERROR MESSAGE IS WRITTEN TO THE CONSOLE IF THE SMF
*    JOB/STEP TERM. RECORD CANNOT BE WRITTEN SUCCESSFULLY.
*    REGISTER 15 CONTAINS A RETURN CODE OF 0 INDICATING THAT THE
*    JOB SHOULD BE CONTINUED.
*    REGISTER 1 CONTAINS A RETURN CODE OF 4 INDICATING THAT THE
*    SMF TERMINATION RECORD SHOULD NOT BE WRITTEN.
* EXTERNAL REFERENCES
*         IEFYS
* EXITS,NORMAL - RETURN TO CALLER
* EXITS,ERROR - NONE, RETURN CODES INDICATE ACTION
* TABLES/WORK AREAS - DSECTS FOR WTO RCD AND JOB MSG
* ATTRIBUTES - STANDARD
* CHARACTER CODE DEPENDENCY - NONE
* NOTES -
*    GETMAIN,FREEMAIN,EXTRACT,TIME,SMFWTM MACROS WERE USED
         EJECT
REG0     EQU   0                       JOB/STEP TERM INDICATOR   A40917
REGA     EQU   2                       @ OF 36 BYTES OF JOB INFO
REGB     EQU   3                       @ OF STEPNAME
REGC     EQU   4                       @ OF PGMR'S NAME
REGD     EQU   5                       @ OF SMF TERM RECORD
REGE     EQU   6                       WORK REGISTER
REGF     EQU   7                       LENGTH FOR GETMAIN
REGG     EQU   8                       WORK REGISTER             A40917
REGH     EQU   9                       BASE REGISTER FOR DSECTS
REGI     EQU   10                      @ AND VALUE OF CPU TIME   A40917
TYPE     EQU   5
CPUSTM   EQU   20                                                A40917
SMFPTR   EQU   36
GETLNGTH EQU   128
TIOTDDL  EQU   24
L18      EQU   18                      LENGTH OF 18
L31      EQU   31                      LENGTH OF 31
L20      EQU   20                      LENGTH OF 20
L8       EQU   8                       LENGTH OF 8
L73      EQU   73                      LENGTH OF 73
L4       EQU   4                       LENGTH OF 4
L16      EQU   16                      LENGTH OF 16
L2       EQU   2                       LENGTH OF 2
D20      EQU   20                      DISP OF 20
D42      EQU   42                      DISP OF 42
D36      EQU   36                      DISP OF 36
D32      EQU   32                      DISP OF 32
D8       EQU   8                       DISP OF 8
D6       EQU   6                       DISP OF 6
D12      EQU   12                      DISP OF 12
D24      EQU   24                      DISP OF 24
D0       EQU   0                       DISP OF 0
D126     EQU   126                     DISP OF 126
XF0      EQU   X'F0'                   ZONE FOR ERROR CODES
R15      EQU   15                      REG 15
R14      EQU   14                      REG 14
R13      EQU   13                      REG 13
R12      EQU   12                      REG 12
R11      EQU   11                      REG 11
R0       EQU   0                       REG 0
R1       EQU   1                       REG 1
L3       EQU   3                       REG 3
L13      EQU   13                      LENGTH OF 13
L1       EQU   1                       LENGTH OF 1
R2       EQU   2                       REG 2
*-- --- --- --- --- --- --- --- --- --- --- --- --- --- --- --- --- --*
         USING *,R15
         B     HERE                    BRANCH AROUND MODULE NAME
         DC    CL8'IEFACTRT'           MODULE NAME
HERE     STM   R14,R12,D12(R13)        ENTRY LINKAGE
         DROP  R15
         LA    REGA,L4
         ST    REGA,D24(R13)           SET REG 1 RETURN CODE TO 4
         BALR  R11,R0                  SET UP
         USING *,R11                   ADDRESSABILITY
         LM    REGA,REGC,D0(R1)        GET PARAMETER ADDRESSES
         L     REGD,SMFPTR(R1)         GET SMF TERM. RECORD ADDRESS
         L     REGI,CPUSTM(R1)         GET ADDR OF CPU STP TIME  A40917
         LR    REGG,REG0               SAVE 'REASON FOR ENTRY'   A40917
         LA    REGF,GETLNGTH(R0)
         GETMAIN   R,LV=(REGF)
         LR    REGH,R1                 SET BASE REG FOR DSECT
*-- --- --- --- --- --- --- --- --- --- --- --- --- --- --- --- --- --*
*  ELIMINATE SMF RECORD TYPE 4 IF STEP IS BEING  FLUSHED              *
*-- --- --- --- --- --- --- --- --- --- --- --- --- --- --- --- --- --*