         TITLE 'IGG019T2-EOB RTN, DA OUTPUT WITH TRK OVFLO,TOTALING'
         MACRO
&NAME    IF    &A,&IS=,&ISNOT=,&GOTO=
         LCLB  &NOERR
&NOERR   SETB  1
         AIF   ('&A' NE '').SKIP
         MNOTE 'TEST  ADDRESS NOT SPECIFIED.'
&NOERR   SETB  0
.SKIP    AIF   ('&GOTO' NE '').SKIP2
         MNOTE 'BRANCH ADDRESS MISSING.'
&NOERR   SETB  0
.SKIP2   AIF   ('&IS' NE '' OR '&ISNOT' NE '').SKIP3
         MNOTE 'TEST CONDITION NOT SPECIFIED.'
&NOERR   SETB  0
.SKIP3   AIF   (&NOERR).SKIP4
         MEXIT
.SKIP4   AIF   ('&IS' EQ '').NOIS
***
&NAME    TM    &A,&IS
         BO    &GOTO
***
         MEXIT
.NOIS    ANOP
***
&NAME    TM    &A,&ISNOT
         BZ    &GOTO
***
         MEND
         EJECT
IGG019T2 CSECT                                                     UT18
         SPACE
***********************************************************************
*                                                                     *
*MODULE NAME = IGG019T2                                               *
*                                                                     *
*DESCRIPTIVE NAME = EOB RTN, DA OUTPUT WITH TRK OVFLO, USER TOTALING  *
*                                                                     *
*COPYRIGHT = NONE                                                     *
*                                                                     *
*
*FUNCTION/OPERATION - DETERMINES WHETHER CURRENT RECORD TO BE WRITTEN *
*   OR READ(F STANDARD) WILL FIT ON CURRENT TRACK. THIS CALCULATION   *
*   ASSUMES THIS RECORD WILL BE LAST ON TRACK. IF RECORD WILL FIT,    *
*   SPACE REQUIRED IS RECALCULATED ASSUMING RECORD IS NOT THE LAST.   *
*   DCBTRACKBALANCE IS REDUCED BY THIS AMOUNT. IF RECORD WILL NOT FIT *
*   THE NEXT SEQUENTIAL TRACK IS FOUND. IF NONE EXISTS,AN EOV         *
*   CONDITION IS SIMULATED. FOR STANDARD F THE SEEK ADDRESS IN THE IOB*
*   IS INCEMENTED BY ONE SINCE SEARCH DIRECT IS USED.                 *
*                                                                     *
*CHANGE ACTIVITY = AS FOLLOWS                                         *
*                                                                     *
*          RELEASE 19 DELETIONS                                       *
*          RELEASE 20 DELETIONS                                       *
*2341094600                                                      A32558
*2341035400,055600,056600,090000,096200,135200,136600            S20201
*          RELEASE 21 DELETIONS                                       *
*          VS2 RELEASE 02 DELETIONS                                   *
*D143400-143600                                                  Y02072
*                                                                YM1433
*                                                                YM4640
*                                                                XM4343
* 030700-030900                                                  YM7588
*
*        VS2 RELEASE 04 DELETIONS
*A125920-126192,144520-144640                                  @ZA02255
*STATUS CHANGE LEVEL 005
*                                                                     *
* ENTRY POINTS - IGG019T2 FROM ALL GET/PUT/READ/WRITE/MODULES      UT18
*               LA   2,DCB                                            *
*               LA   3,IOB                                            *
*               L    4,DCBOFFSR  OR DCBOFFSW                          *
*               L    15,76(2)    FOR WRITE(BSAM)                      *
*               L    15,92(2)    FOR QSAM                             *
*               BALR 14,15                                            *
*                                                                     *
*INPUT - IOB                                                          *
*         IOB+OFFSET - RECORD LENGTH IN CCW                           *
*        DCB                                                          *
*         DCBDVTBL - POINTS TO DEVICE ENTRY IN IECZDTAB               *
*         DCBDEB AD - DEBADDRESS                                      *
*         DCBTRBAL - BYTES REMAINING ON TRACK                         *
*         DCBFDAD  - POINTS TO LAST RECORD READ OR WRITTEN            *
*         DCBKEYLE - KEYLENGTH - ADDED TO BLKSIZE FOR TOTAL LENGTH    *
*         DCBCIND1 - VOL.FULL BIT ON - INDICATES PREVIOUS WRITE EOV   *
*        DEB                                                          *
*         DEBNMEXT - NUMBER OF EXTENTS IN DEB                         *
*         DEBOFLGS - X'04' MEANS SPLIT CYL EXTENTS                    *
*         DEBSTRCC AND DEBSTRHH - STARTING CCHH OF EXTENT             *
*         BEBENDCC AND DEBENDHH - ENDING CCHH OF EXTENT               *
*        IECZDTAB - I/O DEVICE TABLE                                  *
*                   LAST RECORD OV'HD                                 *
*                   NOT LAST RECORD OV'HD                             *
*                   KEY OV'HD                                         *
*                   MAX,TRACK LENGTH                                  *
*                   TOLERANCE                                         *
*                                                                     *
* OUTPUT - ECB - POSTED IN ERROR IF EOV .
*        DCBTRBAL - UPDATED REMAING TRACK LENGTH                      *
*        DCBFDAD - UPDATED RECORD ADDRESS = LAST SEGMENT
*        IOBSEEK - RECORD ADDRESS = FIRST SEGMENT
*        IOB+20   - UNIT EXCEP. IN CSW SET FOR EOV                    *
*                                                                     *
* EXTERNAL ROUTINES - SVC 25  ENTERED WITH THE TRACK OVERFLOW BIT IN
*                     DCBCIND2 SET- PURPOSE IS TO ERASE TO EOE.
*                                                                     *
*                    IF THE USER SPECIFIES THE USER TOTALING FACILIUT18
*                    (OPTCD=T) THEN IGG019AX WILL BE ACCESSED VIA AUT18
*                    'BALR R9,R10'                                 UT18
*EXITS/NORMAL - RETURN TO GET/PUT/WRITE/READ ROUTINE ON REG.14 AFTER  *
*               SCHEDULING I/O,OR POSTING ECB COMPLETE,ERROR IF EOV   *
*                                                                     *
*EXITS/ERROR - ABEND - CODE 002 - ISSUED VIA -                        *
*          1. DMABCOND 254 IF THE RECORD SIZE EXCEEDS 32,760 BYTES.   *
*          2. DMABCOND 204 IF THE BLOCKSIZE IN THE BDW OR THE DECB IS *
*             GREATER THAN THE BLOCKSIZE IN THE DCB.                  *
*                                                                     *
*TABLES/WORK AREAS - ASSUMES USER REGS.2-8 SAVED.SAVES REGS.9-10 INTO *
*                    SAVE AREA + 64
*                                                                     *
*ATTRIBUTES - READONLY,REENTRANT,REUSABLE                             *
*                                                                     *
*NOTES = SEE BELOW                                                    *
*                                                                     *
*     PATCH LABEL = PATCH A DC STATEMENT                              *
*                                                                     *
***********************************************************************
         EJECT
* REGISTER NAMES AND USAGE.
*
RALPHA   EQU   0                        WORK REG. ALPHA MAY NOT BE USED
*                                       AS AN ADDRESS REG.
R1       EQU   1                        THE NAME PRESERVES IDENTITY.
RDEB     EQU   1                        DEB ADDRESS LOADED IN THIS RTN.
RDCB     EQU   2                        HOLDS DCB ADDRESS UPON ENTRY.
RIOB     EQU   3                        HOLDS IOB ADDRESS UPON ENTRY.
RGAMMA   EQU   4                        WORK REG.
RSTEPPER EQU   5                        STEPS THRU COUNT FLD AND S.A.'S
RCPBASE  EQU   6                        CP SEGMENT BASE REG.
ROFFSW   EQU   7                        HOLDS WRITE CCW OFFSET ON ENTRY
*              BUT WILL BE CLOBBERED, AND RESTORED FROM DCB PROIR TO
*              EXIT.  REG MUST BE X-PARENT FOR QSAM.
ROVFLO   EQU   ROFFSW                   CCW OFFSET KNOWN. OVFLO =
*                                       LENGTH REMAINING TO BE WRITTEN.
DONTUSE8 EQU   8                        NOT SAVED. HOLDS USER CONTENTS.
RBETA    EQU   9                        SAVED FIRST, USED AS WORK REG.
RDEVTAB  EQU   10                       SAVED FIRST, DEVTABLE ADDRESS
*                                       LOADED.
OR11     EQU   11                       NOT SAVED. HOLDS USER CONTENTS.
OR12     EQU   12                       NOT SAVED. HOLDS USER CONTENTS.
RSAVE    EQU   13                       USERS REGISTER SAVE AREA.
RRETN    EQU   14                       RETURN TO BSAM/QSAM RTN.
RBASE    EQU   15                       ENTRY-POINT/BASE REG.
         EJECT
UNITEXC  EQU   X'01'                    SETS IOBFLAG3.
COMPWERR EQU   X'42'                    END OF EXTENT CONDITION HAS
*                                       BEEN ENCOUNTERED.
CPSEGLEN EQU   32                       LENGTH OF ONE CP SEGMENT.
D0       EQU   0                        DISPLACEMENT OF ZERO     S20201
TBOVHD   EQU   X'08'                    TWO BYTE OVHD INDICATOR  S20201
EIGHT    EQU   8                        LENGTH OF A COUNT FIELD
RLTV     EQU   32                       VECTOR OFFSET IN CVT.
CNVT     EQU   28                       VECTOR OFFSET IN CVT.
ZERO     EQU   0                        G.P. CONSTANT.
TRKOVFLO EQU   X'80'                    T.O. INDICATOR IN DCBCIND1
NOERROR  EQU   X'7F'                    ECB MASK. ALL BITS ON = NOERROR
ANYZERO  EQU   14                       MASK FOR TESTING ANY SELECTED
*                                       BITS = ZERO.
ONES     EQU   X'FF'                    G.P. CONSTANT.
VOLFULL  EQU   X'20'
IOBSIZE  EQU   48                       STANDARD IOB + BSAM/QSAM EXTEN.
VALCHK   EQU   X'80'                    WRITE VALIDITY CHECK BIT IN
*                                       DCBOPTCD.
SPLIT    EQU   X'04'
* COMMAND CODES FOR THE 2841 C.U.
*
SEEKCYL  EQU   X'0B'                    CYLINDER SEEK.
SRCHEQMT EQU   X'B1'                    SEARCH EQ ID IN MULTI-TRACK.
WCKD     EQU   X'1D'                    WRITE COUNT, KEY AND DATA.
WSCKD    EQU   1                        WRITE SPECIAL OP CODE.
SETSC    EQU   X'23'                    SET SECTOR COMMAND       S20201
RDSC     EQU   X'22'                    READ SECTOR COMMAND      S20201
*
* CCW FLAGS
CC       EQU   X'40'                    COMMAND CHAIN.
*
R0       EQU   0                        PARAMETRIC ZERO            UT18
R3       EQU   3                        WORK REG                   UT18
R4       EQU   4                        PARAMETRIC FOUR            UT18
R6       EQU   6                        WORK REG                   UT18
R9       EQU   9                        PARAMETRIC NINE            UT18
R10      EQU   10                       PARAMETRIC TEN             UT18
R13      EQU   13                       PARAMETRIC 13              UT18
R15      EQU   15                       WORK REG                   UT18
THREE6   EQU   36                       PARAMETRIC 36              UT18
UTFBIT   EQU   X'02'                    MASK FOR USER TOTALING TESTUT18
         EJECT
         USING IGG019T2,RBASE           ESTABLISH BASE REGISTER
         USING SAMSIOB,RIOB
         USING IHADCB,RDCB
         B     BEGIN                   BRANCH AROUND MODULE ID   YM4640
         DC    C'IGG019T2'             MODULE NAME               YM4640
         DC    C' YM7588 '             LAST SHIP CODE            YM7588
         DC    C'02/19/74'             LAST SHIP DATE            YM7588
BEGIN    DS    0H                      END OF MODULE ID          YM4640
*******************************************************************UT18
         L     RDEB,DCBDEBAD            GET THE DEB BASE ADDR.     UT18
         USING DEBB,RDEB                ESTABLISH BASEREG FOR DEB  UT18
         STM   RBETA,RDEVTAB,64(R13)    STORE REGS 9,10            UT18
         TM    DCBOPTCD,UTFBIT          TEST FOR USER TOTALING     UT18
         BZ    CONTINUE                 NOT SPECIFIED - SO BRANCH  UT18
*                                                                  UT18
         SR    R9,R9                    CLEAR THIS REGISTER        UT18
         SR    R10,R10                  CLEAR THIS REGISTER        UT18
         IC    R9,DEBNMEXT              GET NO OF EXTENTS          UT18
          IC   R10,DEBEXSCL             GET DEB EXTENT SCALE       UT18
         SLL   R9,ZERO(R10)             MULT TO GET LEN OF DEV DEP UT18
         L     R15,THREE6(RDEB,R9)      GET SAVE AREA ADDR         UT18
*                                                                  UT18
*  DEBR POINTS TO BEG. OF DEB +32 POINTS TO DEV DEP SECTION, R9    UT18
*        CONTAINS LEN OF DEV DEP SECTION, +4 POINTS TO SAVE AREA   UT18
*        POINTER.  SO R10 CONTAINS SAVE AREA ADDR                  UT18
*                                                                  UT18
         USING TOTSAVWA,R15             ESTAB BASE FOR TOT WRKAREA UT18
         STM   R3,R6,TOTREGSV           SAVE REGS FOR SAVE RTN     UT18
         L     R4,TOTSVPTR              GET ADDR OF SAVE ROUTINE   UT18
         BALR  R3,R4                    GO TO SAVE ROUTINE         UT18
         LM    R3,R6,TOTREGSV           RESTORE REGISTERS          UT18
*                                                                  UT18
CONTINUE EQU   *                                                   UT18
         BALR  R15,R0                   SET NEW BASE               UT18
         USING NEWBASE,R15              RE-ESTAB MODULE BASE REG   UT18
NEWBASE  EQU   *                                                   UT18
*******************************************************************UT18
         IF    DCBCIND1,IS=VOLFULL,GOTO=POSTECB
         SR    RCPBASE,RCPBASE
         IC    RCPBASE,DCBWCPO          BUILD WRITE CHANNEL PGM
         AR    RCPBASE,RIOB             ADDRESSABILITY.
         USING WCPMAP,RCPBASE
* WORK REG SIGMA IS IN USE AS 'RCPBASE'.
         SR    RSTEPPER,RSTEPPER
         IC    RSTEPPER,DCBWCPL         NUMBER OF CCW'S BETWEEN IOB AND
*                                       FIRST COUNT FIELD.
         SLL   RSTEPPER,3               DBL WDS TO BYTES.
*
         AR    RSTEPPER,RCPBASE         CP START ADDR + ITS LENGTH
*                                       GIVES ADDRESSABILITY FOR COUNT
*                                       FIELDS AND S.A.'S. (THEY ARE
*                                       INTERLEAVED, WITH A COUNT FIELD
*                                       BEING FIRST, EACH IS A DBL WD).
         USING COUNTFLD,RSTEPPER
* WORK REG DELTA IS IN USE AS 'RSTEPPER'.
         L     RDEVTAB,DCBDVTBL         ADDRESS OF DEV TABLE ENTRY FOR
*                                       THIS UNIT.
         USING DEVTAB,RDEVTAB
*
         L     RDEB,DCBDEBAD            DEB ADDRESSABILITY.
*
* CHECK FOR RCD READY FEATURE BEING USED AND IF NOT ADJUST
* RCPBASE, IF YES, UPDATE SECTOR VALUE
*
         CLI   CHANPGM,SETSC            RCD READY CHP            S20201
         BNE   NOFET3                   BRANCH IF NO             S20201
         AH    RCPBASE,ATE8             ADJUST RCPBASE FOR RCD   S20201
*                                       READY FEAT
NOFET3   EQU   *                                                 S20201
*
         L     ROVFLO,DATALEN-2         GET COMPOSITE KL+DL FROM CCW.
         LA    ROVFLO,0(ROVFLO)         CLEAR OUT THE FLAGS.
         LR    RBETA,ROVFLO             TEMP WORK REG.
         SR    RALPHA,RALPHA
         IC    RALPHA,DCBKEYLE          TO REMOVE KL FROM KL+DL.
         SR    RBETA,RALPHA             BETA=DL.
         CH    RBETA,DCBBLKSI           ABEND IF RECORD LENGTH
         BH    ERREXIT1                 GREATER THAN BLKSIZE.    Y02072
         LA    RBETA,7(RBETA)           MAKES POSSIBLE AN LTR FOR
*                                       DL GT 32760.
         SLL   RBETA,16                 ALIGN FOR SIGN TEST.
         LTR   RBETA,RBETA              DL+7 MUST BE LESS THAN 32768.
         BM    ERREXIT2                 BRANCH IF DL GT 32760    Y02072
*
         LA    RALPHA,2                 LENGTH OF CCW LENGTH FIELD.
         LR    RBETA,RSTEPPER           COPY REG.
         CLI   CHANPGM,SETSC            RCD READY CHP            S20201
         BNE   NOFET4                   BRANCH IF NO             S20201
         TM    DCBOPTCD,VALCHK          VALIDITY CHK USED        S20201
         BO    NOFET4                   BRANCH IF YES            S20201
         AH    RALPHA,ATE8              INCREMENT FOR RD SECTOR  S20201
NOFET4   EQU   *                                                 S20201
         SR    RBETA,RALPHA             BETA POINTS TO THE LAST CCW
*                                       LENGTH FIELD. (MAY OR MAY NOT
*                                       BE THE WRITE VALIDITY CHECK
*                                       SEGMENT).
*
         STH   ROVFLO,0(RBETA)          USING THE LAST CCW LENGTH TO
*                                       SAVE THE OVFLO AMOUNT. USED TO
*                                       RECOVER AFTER GETTING A NEW
*                                       EXTENT,  IS ALSO  THE WRITE
*                                       VALIDITY CHECK LENGTH IF THE
*                                       VAL CHK CP EXISTS.
         MVC   TEMPSAVE(2),DCBTRBAL     PRESERVE THE ORIGINAL TRK BAL.
*                                       WILL BE RESTORED IF A RECORD
*                                       CANNOT BE WRITTEN.
SETFDAD  MVC   IOBFDAD(8),DCBFDAD       COPY FDAD INTO IOB.
RUPBY1   IC    RBETA,DCBFDAD+7          GET 'R'.
         LA    RBETA,1(RBETA)           R=R+1.
         STC   RBETA,DCBFDAD+7          PUT IT BACK.
*
         MVC   CYLINDER(5),DCBFDAD+3    INITIALIZE THE ID PART OF THE
*                                       FIRST COUNT FIELD.
*
* END OF FIRST TIME LOGIC.
*
* BEGIN LOOP LOGIC.
*
* CALCULATE THE SPACE REQUIRED TO WRITE THE DATA AS A LAST RECORD.
*
STRTLOOP SR    RBETA,RBETA
         SR    RALPHA,RALPHA
         IC    RBETA,OVERL              L = OVHD FOR LAST RECORD.
         TM    DEVFLAG,TBOVHD           TWO BYTE OVHD USED       S20201
         BNO   MZ0010                   BRANCH NO                S20201
         LH    RBETA,OVERI              GET TWO BYTE OVHD        S20201
MZ0010   EQU   *                                                 S20201
         IC    RALPHA,DCBKEYCN          KEYCN = EITHER 0 OR K (IF OR
*                                       IF NOT KEYS, RESPECTIVELY).
         LR    RGAMMA,ROVFLO            COPY THE AMOUNT REMAINING TO
*                                       BE WRITTEN (OVERFLOW).
         AR    RGAMMA,RBETA             OVFLO+L
         SR    RGAMMA,RALPHA            OVFLO+L-KEYCN IS THE SPACE FOR
*                                       A LAST RECORD.
*
         CH    RGAMMA,DCBTRBAL          WILL THIS TRACK HOLD THE RECORD
         BNH   FINAL                    YES. BRANCH TO DO FINAL LOGIC
*                                       FOR THE LAST CP SEGMENT.
*
* RECORD WILL NOT FIT AS A LAST RECORD. CALCULATE HOW MUCH WILL FIT AND
* TAILOR THE CURRENT CP SEGMENT TO WRITE THAT AMOUNT. AT LEAST ONE MORE
* RECORD SEGMENT WILL BE WRITTEN AFTER THIS ONE.
* CCWLENGTH=TRBAL+KEYCN-L IS AMOUNT THAT WILL FIT.
         LH    RGAMMA,DCBTRBAL          GET TRACK BAL.
         AR    RGAMMA,RALPHA            TRBAL+KEYCN.
         SR    RGAMMA,RBETA             TRBAL+KEYCN-L IN GAMMA.
MIDLOOP  MVC   DCBTRBAL,TRKCAP          RESET TRBAL TO DEVICE MAX.
         NI    TRACKFUL,ZERO            HOUSEKEEP TRACK FULL SWITCH.
         LTR   RGAMMA,RGAMMA            SEE IF ANY DATA CAN BE WRITTEN.
         BP    WILLFIT                  BRANCH IF ROOM FOR DATA.
         OI    TRACKFUL,ONES            SET TRACK FULL SWITCH. OCCURS
*                                       ONLY IF FIRST TRACK HAS NO ROOM
*                                       FOR DATA. ACTION REQ'D IS TO
*                                       ADVANCE TO NEXT TRACK.
         B     CONVERT                  NO ROOM FOR DATA. OVERHEAD
*                                       EXCEEDS TRK BAL.  GET A NEW
*                                       TRACK.
WILLFIT  SR    ROVFLO,RGAMMA            REDUCE THE OVFLO FIGURE BY THE
*                                       CURRENT TRACK LENGTH.
*
         MVI   WRTOPCD,WSCKD            WRITE SPECIAL BECAUSE THIS IS
*                                       NOT THE LAST SEGMENT.
         MVI   NULLFLAG,CC              COMMAND CHAIN TO NEXT SEGMENT.
         STH   RGAMMA,DATALEN           PUT SEGMENT LENGTH IN WRT CCW.
         SR    RALPHA,RALPHA
         IC    RALPHA,KEYLENTH          KEY LENGTH FROM COUNT FIELD.
         SR    RGAMMA,RALPHA            DATA LEN= SEG LEN - KL.
         STH   RGAMMA,DLDL              PUT IT IN COUNT FLD DATA LENGTH
         AR    RGAMMA,RALPHA            RECONSTRUCT SEGMENT LENGTH.
*
         L     RBETA,DATAADDR           GET THE DATA ADDRESS
         LA    RBETA,0(RBETA)           CLEAR HI BYTE.
         AR    RGAMMA,RBETA             ADDRESS+LENGTH=NEXT ADDRESS.
*
         LA    RCPBASE,CPSEGLEN(RCPBASE) ADVANCE CP BASE TO NEXT SEG.
         LA    RSTEPPER,EIGHT(RSTEPPER)  POINTS TO S.A. THE 'CCHHR' OF
*                                       THE COUNTFLD DSECT IS VALID.
         ST    RGAMMA,DATAADDR          THIS DATA ADDRESS = LAST + LEN.
         MVI   SRCHOPCD,SRCHEQMT        OP CODE SET FOR MULTI-TRACK
*
         CLI   CHANPGM,SETSC            RCD READY CHANNEL PROG   S20201
         BE    FEATX                    BRANCH IF YES            S20201
*
*
         IF    DCBOPTCD,ISNOT=VALCHK,GOTO=CONVERT
* RECONSTRUCT THE FIRST CCW SEARCH ADDRESS. REASON- IT MAY HAVE BEEN
* CHANGED TO A TIC TO WRT CHK CP ON A PREVIOUS USE.
*
FEATX    EQU   *                                                 S20201
*
         MVC   SRCHADDR+1(3),PARASITE+1 THE CORRECT SEARCH ADDRESS HAS
*                                       BEEN A PARASITE IN THE TIC CCW.
*
CONVERT  EQU   *
* THE DCB FULL DISK ADDRESS MUST BE UPDATED TO THE ADDRESS OF THE NEXT
* TRACK, ON WHICH THE NEXT RECORD SEGMENT WILL BE WRITTEN. THE NEXT
* TRACK MAY BE ACCROSS A CYLINDER BOUNDARY, SO THE DISK ADDRESS IS
* UPDATED IN THE TTR FORM. THE CONVERT ROUTINE ALSO PROVIDES VALIDITY
* CHECKING OF THE NEW FDAD.
*
         LA    RGAMMA,FDADTTR           THIS IS A CONCEALED ENTRY TO A
*                                       CLOSED SUBROUTINE.
***********************************************************************
*        THE FOLLOWING ROUTINE WILL DETERMINE THE NEXT TRACK ADDRESS. *
*        BY ADDING 1 TO THE CURRENT TT AND SENDING THIS VALUE TO THE  *
*      RESIDENT CONVERT ROUTINE, THE NEXT TRACK WILL BE DETERMINED. IF*
*      THE NUMBER OF TRACKS IN THE DEB ARE EXCEEDED, THE CONVERT ROU- *
*      TINE WILL PASS A RETURN CODE OF 4 IN REGISTER 15               *
*                                                                     *
*        REGISTER CONTENTS PRIOR TO BRANCHING TO THE CONVERT ROUTINES *
*      ARE:                                                           *
*        R0 ---NEXT TTR RETURNED BY IECPRTLV OR TTRN IF GOING TO THE  *
*              IECPCNVT ROUTINE. (TTR TO MBBCCHHR)                    *
*        R1 ---ADDRESS OF DEB                                         *
*        R2 ---ADDRESS OF USER MBBCCHHR                               *
*        R3 ---BASE REGISTER OF THIS MODULE                           *
*        R4 ---RETURN TO USER                                         *
*        R5 ---USER (11)                                              *
*        R6 ---USER (12)                                              *
*        R7 ---ADDRESS OF SAVE AREA                                   *
*        R8 ---TEMPORARY STORAGE OF TTRN FOR SPLIT CYLINDER USE.
*              R9 ---REGS 9 - 13 ARE
*        R10---USED           VO                                      *
*        R11--- BY              LA                                    *
*        R12---  CONVERT          TI                                  *
*        R13---   ROUTINES               LE                           *
*                                                                     *
*        R14---RETURN FOR CONVERT ROUTINE                             *
*              R15---ENTRY/ERROR CODE REG.
*                                                                     *
*
*
*
*
*              IECPRLTV -ENTRY TO ROUTINE VIA A BALR THAT CONVERTS AN
*                        ABSOLUTE DIRECT ACCESS ADDRESS, MBBCCHHR, INTO
*                        ITS RELATIVE EQUIVALENT, TTR0. REGISTER
*                        CONVENTIONS UPON ENTRY AND UPON EXIT ARE AS
*                        FOLLOWS--
*
*                           REGISTER         ENTRY             EXIT
*                             0          IGNORED            TTR0 RESULT
*                             1          DEB ADDRESS        TRANSPARENT
*                             2          ADDRESS OF         TRANSPARENT
*                                          MBBCCHHR IN CORE
*                             3-8        IGNORED            TRANSPARENT
*                             9-13       IGNORED            DESTROYED
*                             14         RETURN ADDRESS     TRANSPARENT
*                             15         ENTRY ADDRESS      ZERO
*
*              IECPCNVT -ENTRY TO ROUTINE VIA A BALR THAT CONVERTS A
*                        RELATIVE DIRECT ACCESS ADDRESS AND
*                        CONCATENATION NUMBER, TTRN, INTO ITS ABSOLUTE
*                        EQUIVALENT, MBBCCHHR. REGISTER CONVENTIONS
*                        UPON ENTRY AND UPON EXIT ARE AS FOLLOWS--
*
*                           REGISTER         ENTRY             EXIT
*                             0          ACTUAL TTRN        DESTROYED
*                             1          DEB ADDRESS        TRANSPARENT
*                             2          ADDRESS OF 8 BYTE  TRANSPARENT
*                                          AREA FOR MBBCCHHR
*                             3-8        IGNORED            TRANSPARENT
*                             9-13       IGNORED            DESTROYED
*                             14         RETURN ADDRESS     TRANSPARENT
*                             15         ENTRY ADDRESS      ERROR CODE
*
*                        THE ERROR CODE FOR IECPCNVT WILL BE 0 FOR
*                        SUCCESSFUL CONVERSION, OR 4 IF VALUE OF TT
*                        EXCEEDS TOTAL EXTENTS ASSIGNED.
*
*                                                                     *
***********************************************************************
*
REGMANIP EQU   *                        START OF A CLOSED SUBROUTINE
*                                       FOR REGISTER MAINIPULATION.
* THE FOLLOWING REGISTER MANIPULATIONS ARE REQUIRED IN ORDER TO USE
* THE CONVERT ROUTINES.
* THE CURRENT CP SEGMENT S.A. AND COUNT FIELD (2 CONTIG. DBL WDS)
* PROVIDE A CONVENIENT PLACE TO SAVE SOME REGS. RSTEPPER HAS THIS ADDR.
*
         STM   RCPBASE,DONTUSE8,0(RSTEPPER)  SAVE REGS 6,7,8. HI BYTE
*                                            OF REG 7 MUST BE ZERO FOR
*                                            IT OVERLAYS R=0 OF THE SA.
         LR    DONTUSE8,RSTEPPER        REG 8 IS TRANSPARENT ACCROSS
*                                       CONVERT, CAN HOLD S.A. ADDRESS.
*                                       USERS CONTENTS OF 8 ARE SAVED
*                                       THERE.
* MOVE USERS REGS 11, 12, 13, 14, AND EOB BASE 15, TO 5,6,7,4,3 RESPEC-
* TIVELY.
         LR    RSTEPPER,OR11            11 TO 5.
         LR    RCPBASE,OR12             12 TO 6.
         LR    ROVFLO,RSAVE             13 TO 7.
         LR    RSAVE,RGAMMA             SAVE THIS ROUTINE'S RETURN REG.
         LR    RGAMMA,RRETN             14 TO 4.
         LR    RIOB,RBASE               15 TO 3.
         DROP  RBASE
         DROP  RIOB
         USING NEWBASE,RIOB             ESTABLISH TEMP BASE REG    UT18
         LA    RDCB,DCBFDAD             POINT TO M OF FDAD.
         USING DCBFDAD,RDCB
         BR    RSAVE                    RETURN TO CALLER OF 'REGMANIP'.
FDADTTR  EQU   *
         L     RBASE,16                 GET  CVT ADDRESS
         L     RBASE,RLTV(RBASE)        GET IECPRLTV ENTRY POINT.
         BALR  RRETN,RBASE              GO TO CONVERT MBBCCHHR TO TTR.
* ON RETURN, REG 0 HAS THE TTR, LEFT ADJUSTED.
         SRL   RALPHA,16               TRUNCATE 'RZ' OF 'TTRZ'.
         AH    RALPHA,ONE               TT=TT+1.
         L     RBETA,DCBIOBA            TEMPORARY IOB ADDRESSABILITY.
         USING SAMSIOB,RBETA
         STH   RALPHA,TTSAVE            SAVE TT FOR USE IN SPLIT TESTS.
         DROP  RBETA
TTRFDAD  EQU   *
         SLL   RALPHA,16               RE-ALIGN TO 'TT00'.
         L     RBASE,16                 GET CVT ADDR.
         L     RBASE,CNVT(RBASE)        GET IECPCNVT ENTRY POINT.
         BALR  RRETN,RBASE              GO TO CONVERT TTR TO MBBCCHHR.
* ON RETURN, REG 15 HAS THE RETURN CODE.
         LR    RALPHA,RBASE             SAVE THE RETURN CODE FOR LATER
*                                       INSPECTION.
* REGISTER RECONSTRUCTION - PUT THEM BACK AS THEY WERE BEFORE CONVER-
* SION.
* MOVE REGS 5,6,7,4,3 BACK TO 11,12,13,14,15
         LR    OR11,RSTEPPER            5 TO 11.
         LR    OR12,RCPBASE             6 TO 12.
         LR    RSAVE,ROVFLO             7 TO 13.
         LR    RRETN,RGAMMA             4 TO 14.
         LR    RBASE,RIOB               3 TO 15.
*
         USING NEWBASE,RBASE            RE-ESTABLISH BASE REG      UT18
*
         LR    RSTEPPER,DONTUSE8        RESTORE REG # 5 FROM XPARENT 8.
         LM    RCPBASE,DONTUSE8,0(RSTEPPER) RESTORE 6,7,8.
         USING WCPMAP,RCPBASE
*
         LA    RBETA,5                  OFFSET OF DCBFDAD.