         TITLE 'IGG0191H, LEVEL 2 EXEC FOR D.A. WITH TRK OVFLOW.'
         MACRO
&NAME    IF    &A,&IS=,&ISNOT=,&GOTO=
         LCLB  &NOERR
&NOERR   SETB  1
         AIF   ('&A' NE '').SKIP
         MNOTE 'TEST  ADDRESS NOT SPECIFIED.'
&NOERR   SETB  0
.SKIP    AIF   ('&GOTO' NE '').SKIP2
         MNOTE 'BRANCH ADDRESS MISSING.'
&NOERR   SETB  0
.SKIP2   AIF   ('&IS' NE '' OR '&ISNOT' NE '').SKIP3
         MNOTE 'TEST CONDITION NOT SPECIFIED.'
&NOERR   SETB  0
.SKIP3   AIF   (&NOERR).SKIP4
         MEXIT
.SKIP4   AIF   ('&IS' EQ '').NOIS
***
&NAME    TM    &A,&IS
         BO    &GOTO
***
         MEXIT
.NOIS    ANOP
***
&NAME    TM    &A,&ISNOT
         BZ    &GOTO
***
         MEND
IGG0191H CSECT
*
*
*MODULE NAME - IGG0191H                                          Y02072
*
*DESCRIPTIVE NAME - BUILD IOBS                                   Y02072
*
*COPYRIGHT - NONE                                                Y02072
*
*CHANGE ACTIVITY - AS FOLLOWS:                                   Y02072
*
*          VS2 RELEASE 2 DELETIONS                               Y02072
*005500,044300,044420,044600-044720,060090-060120,062800,        Y02072
*075720,110370,126040,120200,120350,124400-124800,125400         Y02072
*100400,110340-110350,106000                                     YM1086
*                                                                YM2424
*                                                                YM4640
*                                                                YM7595
*
*          VS2 RELEASE 3 DELETIONS
*                                                              @Z30TSCF
*          RELEASE 20 DELETIONS                                       *
*0973020200-020800,043000,044600,045000-059800,063000,064200,    S20201
*0973067800-068000,068200,069200,070400,075800,076800,077800,    S20201
*0973079600,089200,092400,093400,097200,099200,100600,102200-    S20201
*0973102400,110400,111000,111400-111600,119600,125600-125800,    S20201
*0973126000-126200,129400,134800-135200,138000-138400,145600-    S20201
*0973145800                                                      S20201
*          RELEASE 21 DELETIONS                                       *
*0091042300,043000,075700,110360,120000,125000,127600-127700,    S21042
*0091132900,157400                                               S21042
*
*STATUS CHANGE LEVEL 007
*
*
* THIS EXECUTOR RUNS IN TANDEM WITH IGG0191S, WHICH COMPLETES DCB
* FIELDS THAT ARE KNOWN PRIOR TO GETTING CORE FOR THE IOB/CP'S.
*
* THE MAJOR FUNCTIONS OF THIS EXEC ARE-
*
* 1. STRUCTURE EACH IOB/CP WITH THE ADDRESSES AND FLAGS THAT ARE
*    KNOWN AT OPEN TIME.
* 2. COMPLETE THE RELATED DCB FIELDS.
* 3. REPEAT FOR EACH DCB BEING OPENED.
*
* ENTRY POINTS- FROM IGG0191S BY XCTL.
* EXITS- TO IGG01913 BY XCTL.
*
*
*INPUT-REGISTERS WITH THE ADDRESSES OF THE FOLLOWING-
*   THE PARAMETER LIST  (POINTERS TO TOP AND CURRENT ENTRY).
*   THE WHERE-TO-GO TABLE (WTG) (POINTERS TO TOP AND CURRENT).
* EXTERNAL ROUTINES- NONE.
* ATTRIBUTES- REENTRANT, REUSABLE, RUNS IN USER KEY UNLESS       Y02072
*             OTHERWISE SPECIFIED, SUPER STATE                   Y02072
* TABLES/WORKAREAS-
*
*MACROS : ACTION - MODESET, XCTL, XCTLTABL                       Y02072
*
*MACROS : MAPPING - IHACCW, IGGBCB, IECDSECS(DCB,WTG), IHAFCAUD
*
*TABLES/WORKAREAS- WHERE TO GO TABLE (WTG)
*      BYTE  0-7  NAME
*      BYTE  8-10 RELATIVE DISK ADDRESS(TTR) OF FIRST RECORD
*      BYTE 11    CONCATENATION NUMBER
*      BYTE 12    ZERO
*      BYTE 13    ALIAS INDICATOR AND USER DATA FIELD DESCRIPTOR.
*                        ALIAS INDICATOR 1 BIT
*                        NUMBER OF TTRS IN USERS DATA FIELD 2 BITS
*      BYTE 14-16 TTR OF FIRST TEXT RECORD
*      BYTE 17    ZERO
*      BYTE 18-19 TTR OF NOTE LIST OR SCATTER LIST
*      BYTE 20    TRANSLATION TABLE
*      BYTE 21    ZERO OR NUMBER OF ENTRIES IN THE NOTE LIST
*      BYTE 22-23 ATTRIBUTES
*      BYTE 24-26 TOTAL CONTIGUOUS MAIN STORAGE REQUIRED FOR MODULE
*      BYTE 27-28 LENGTH OF FIRST TEXT RECORD
*      BYTE 29    LENGTH OF WTG TABLE (IN DOUBLE WORDS)
*      BYTE 30-31 PATH THROUGH LOADS OF ROUTINES
*      BYTE 32-34 IDTTR OF EXECUTOR FOR FIRST DCB
*      BYTE 35    WORKAREA ADDRESS FOR FIRST DCB
*      BYTE 36-39 TABLE OF IDTTR'S
*      BYTE 32+N(8) IDTTR OF EXECUTOR FOR  N TH DCB  (3 BYTES)
*                   WORKAREA ADDRESS FOR N TH DCB    (1 BYTE )
*                   IDTTR OF LAST ROUTINE LOAD       (3 BYTES)
*                   NOT USED                         (1 BYTE)
*
*    WORKAREA- SEE 'FORCORE DSECT' (IECDSECT) IN THIS LISTING
*
*TABLES/WORKAREAS- PARAMETER LIST
*
*WORD ZERO
*      BYTE  0    OPEN ATTRIBUTE  (INPUT, OUTPUT, UPDATE, IN/OUT,
*                                  OUT/IN, READ BACKWD, LEAVE , REREAD)
*      BYTES 1-3  DCB ADDRESS FOR FIRST DCB BEING OPENED.
*
*THE PARAMETER LIST HAS A ONE WORD ENTRY FOR EACH DCB BEING OPENED. THE
*FORMAT IS THE SAME AS WORD ZERO.
*END PARAMETER LIST.
*
* REGISTER CONVENTIONS USED IN ALL OF OPEN-
*
RDCB     EQU   2                        DCB REGISTER
RBASE    EQU   3                        BASE REGISTER
RCORE    EQU   4                        I/O SUPPORT WORK AREA
RPAR     EQU   5                        TOP OF PARAMETER LIST
RBUFADR  EQU   RPAR                     MAINTAINS ADDR OF NEXT   Y02072
*                                         AVAILABLE BUFFER       Y02072
RWTG     EQU   6                        TOP OF WTG TABLE
RPARC    EQU   7                        CURRENT PARAMETER
RWTGC    EQU   8                        CURRENT LOAD IN TRANSIENT AREA
RTIOT    EQU   9                        USED AS A WORK REG
RIOB     EQU   RTIOT                    USED AS IOB BASE REG WITH THE
*                                       IOB OVERLAY FROM FORECORE.
RUCB     EQU   10                       USED AS A WORK REG
RCPSIZE  EQU   RUCB                     USED TO CALCULATE AND HOLD THE
*                                       CHANNEL PGM SIZE.
RDEB     EQU   11                       DEB BASE REG.
RB       EQU   12                       WORK REG.
RCPBASE  EQU   RB                       CHANNEL PGM BASE REG USED WITH
*                                       'CPSEGMAP' DUMMY SECTION.
RC       EQU   13                       WORK REG.
RSTEPPER EQU   RC                       POINTS TO THE CURRENT SEARCH
*                                       ADDRESS OR COUNT FIELD BEING
*                                       USED FOR CP CONSTRUCTION. WHEN
*                                       POINTING TO A COUNT FLD THE
*                                       'COUNTFLD' DUMMY SECTION IS
*                                       USED BASED ON THIS REG.
*
RE       EQU   0                        WORK REG. VOLATILE ACCROSS SVC.
RF       EQU   1                        WORK REG. VOLATILE ACCROSS SVC.
RD       EQU   14                       WORK REG. VOLATILE ACCROSS SVC.
RWK1     EQU   RD                       WORK REGISTER            Y02072
RJ       EQU   15                       WORK REG. VOLATILE ACCROSS SVC.
RA       EQU   RJ                       USED AS WORK REG         S20201
RVALCHK  EQU   RA                       VALIDITY CHK CP BASEREG, S20201
*                                       USES 'VCMAP' DSECT.
*
*
* MASK CONFIGURATIONS FOR TESTING THE HI ORDER BYTE OF EACH PARAMETER
* LIST ENTRY. SIGNIFICANCE IS THE SAME AS THE DEB OPEN ATTRIBUTE FIELD.
*
INPUT    EQU   X'0F'                    TEST MASKED BITS FOR ZEROS.
OUTPUT   EQU   X'0F'                    TEST MASKED BITS FOR ONES.
INOUT    EQU   X'03'
OUTIN    EQU   X'07'
RDBACK   EQU   X'01'
UPDAT    EQU   X'04'
LEAVE    EQU   X'10'
REREAD   EQU   X'30'
*
* COMMAND CODES FOR THE 2841 CONTROL UNIT.
*
SRCHEQ   EQU   X'31'                    SEARCH EQUAL ID.
SRCHEQMT EQU   X'B1'                    SEARCH EQUAL ID IN MULTI-TRACK.
TIC      EQU   X'08'                    TRANSFER IN CHANNEL.
WCKD     EQU   X'1D'                    WRITE COUNT, KEY, AND DATA.
WSCKD    EQU   X'01'                    WRITE SPECIAL, COUNT,KEY,DATA.
SEEKCYL  EQU   X'0B'                    SEEK CYLINDER.
READDATA EQU   X'06'                    READ DATA SINGLE TRACK.
RDDATAMT EQU   86                       MULTI-TRACK READ DATA.
READKD   EQU   14                       READ KEY AND DATA.
READCT   EQU   X'92'                    READ COUNT M/T MODE.
RDSC     EQU   X'22'                    SET THETA CCW COMMAND    S20201
SETSC    EQU   X'23'                    READ THETA CCW COMMAND   S20201
*
* CHANNEL COMMAND WORD FLAGS.
*
SKIP     EQU   X'10'                    SKIP FLAG.
SILI     EQU   X'20'                    SUPPRESS INCORRECT LENGTH IND.
CC       EQU   X'40'                    COMMAND CHAIN.
DC       EQU   X'80'                    DATA CHAIN.
SILICC   EQU   X'60'                    SILI AND CC TOGETHER
SILICCSK EQU   X'70'                    SILI, CC, AND SKIP.
* END CCW FLAGS.
*
* DISPLACEMENTS  AS EQUATES
*
D0       EQU   0                        DISPLACEMENT OF ZERO     S20201
D1       EQU   1                        DISPLACEMENT OF ONE      S20201
D2       EQU   2                        DISPLACEMENT OF TWO      S20201
D4       EQU   4                        DISPLACEMENT OF FOUR     S20201
D6       EQU   6                        DISPLACEMENT OF SIX      S20201
D8       EQU   8                        DISPLACEMENT OF EIGHT    S20201
D12      EQU   12                       DISPLACEMENT OF TWELVE   S20201
D15      EQU   15                       DISPLACEMENT OF FIFTEEN  S20201
CNTOFF   EQU   7                        CCW COUNT FIELD OFFSET   S20201
SXTN     EQU   16                       ADDITIONAL CHP LENGTH    S20201
*                                       FOR                      S20201
*                                       RECORD READY FEATURE
*
* MISCELLANEOUS ITEMS.
*
COMPNOER EQU   X'7F'                   USED TO INIT. ECB.
DCANDCC  EQU   X'C0'                    USED TO SET IOBFLAG1.
IDLENGTH EQU   X'05'                    NMBR OF BYTES IN A 'CCHHR'.
POINT    EQU   X'04'                    DCBMACRF IF NOTE/POINT USED.
QSAM     EQU   X'01'                    QSAM BIT IN DCBIND2.
*
NPD2     EQU   5                        NOTE/POINT FOR PCI,UPD,T.O.
EPDT     EQU   9                        EOB FOR T.O.
EGP2     EQU   8                        EOB FOR D.A. INPUT.
*
*
VALCHK   EQU   X'80'                    MASK TO DETERMINE IF WRITE
*                                       VALIDITY CHECK OPTION CALLED.
IOBSIZE  EQU   48                       LENGTH OF A STANDARD IOB WITH
*                                       BSAM/QSAM/BPAM EXTENSION.
IOBDBLWD EQU   6                        NMBR OF DBL WDS IN IOB.
OFFSW    EQU   24                       OFFSET OF CCW THAT WRITES DATA.
OFFSR    EQU   32                       OFFSET OF THE READ CCW THAT
*                                       RECEIVES THE BLOCK LENGTH TO
*                                       BE READ.
CPSEGLEN EQU   32                       LENGTH OF ONE CP SEGMENT.
NOTZERO  EQU   7                        CONDITION MASK USED AFTER
*                                       ARITHMETIC INSTRUCTIONS FOR THE
*                                       NOT-ZERO TEST.
BBCCHH   EQU   6                        MIN. SEEK LENGTH.
*
ZERO     EQU   X'00'                    AN IMMEDIATE BYTE OF ZERO'S.
B1       EQU   1                        BYTE COUNT OF ONE        S20201
TWO      EQU   2                        CONST OF TWO             S20201
B5       EQU   5                        BYTE COUNT OF FIVE       S20201
*
NORCDRY  EQU   X'20'                    NO RECORD READY MASK     S20201
RCDRYSL  EQU   48                       SEG LENGTH WHEN USING    S20201
*                                       RCD                      S20201
*                                       READY FEATURE
*
*
*
VRCDS    EQU   X'40'                    V TYPE RCD MSK           S20201
*
*
EIGHT    EQU   8                        LENGTH OF A COUNT FIELD.
ANYZERO  EQU   14                       MASK FOR MIXED OR ZEROS.
FIRST    EQU   X'01'                    USED TO SET IOB FLAG IN FIRST
*                                       IOB AND INIT. 'R'.
READCPL  EQU   40                       NMBR OF BYTES IN READ CP.
RCPDBLWD EQU   5                        NMBR OF DBL WDS IN RCP.
REMNANT  EQU   READCPL-OFFSR            OFFSR+REMNANT=READCPL.
OPCODE   EQU   0                        OFFSET OF CCW OPCODE(IN CCW).
ADDRESS  EQU   0                        OFFSET OF ADDRESS IN CCW
*                                       (IMPLIES THAT THE ADDRESS MUST
*                                       BE PUT IN BEFORE THE OP CODE)
FLAGS    EQU   4                        CCW FLAG BYTE.
LENFLD   EQU   6                        START OF LENGTH FLD IN CCW.
U        EQU   X'C0'                    CODE FOR DCBRECFM=U
OABD062  EQU   62                                                S21042
*
         BALR  RBASE,0                  ESTABLISH ADDRESSABILITY.
         USING SOP6,RBASE
         USING FORCORE,RCORE            OPEN COMMON WKAREA       S21042
         USING IHADCB,RDCB              DCB ADDRESSABILITY.
*
*
SOP6     EQU   *
         B     BEGIN                    BRANCH AROUND MODULE ID  YM4640
         DC    C'IGG0191H'              MODULE NAME              YM4640
         DC    C'@Z30TSCF'              LAST SHIP CODE         @Z30TSCF
         DC    C'10/17/74'              LAST SHIP DATE         @Z30TSCF
BEGIN    DS    0H                       END OF MODULE ID         YM4640
*
         L     RDCB,0(RPARC)            GET DCB ADDRESS FROM PARM. LIST
         L     RDEB,DCBDEBAD            DEB ADDRESSABILITY.
         L     RCORE,D4(RWTGC)          GET WORK AREA ADDR       S20201
         ST    RPAR,DXREGSAV            SAVE REG SO IT CAN BE    Y02072
*                                         USED AS RBUFADR        Y02072
         LA    RDCB,0(RDCB)             HOUSEKEEP HI BYTE.
         SR    RUCB,RUCB                CLEAR REG                S20201
         IC    RUCB,DCBNCP              GET NO. OF IOBS REQUIRED S20201
         IF    DCBCIND2,ISNOT=QSAM,GOTO=SOP6L12                  S20201
         IC    RUCB,DCBBUFNO            IF QSAM USE BUFNO        S20201
SOP6L12  EQU   *                                                 S20201
         L     RIOB,DCBIOBA             GET FIRST IOB ADDRESS.
         MODESET  KEYADDR=DXUKEY,WORKREG=14 GET INTO USER KEY    Y02072
         USING SAMSIOB,RIOB            IOB ADDRESSABILITY READY.
         MVI   FLAG,FIRST               FLAG FIRST IOB             DM0I
*
BUILDIOB EQU   *
*
* RIOB POINTS TO START OF AN IOB. USING THIS AS A BASE, GET THE CP
* START ADDRESS AND THE ADDRESS OF THE COUNT FIELDS AND S.A.'S.
*
*
         MVI   ECB,COMPNOER            INIT. ECB FOR QSAM.
         LA    RF,ECB                   INITIALIZE THE
         ST    RF,IOBECBPT              ECB POINTER.
*
         OI    IOBFLAG1,DCANDCC         INDICATE COMMAND AND DATA CHAIN
         DROP  RIOB                                              Y02072
         L     RWK1,DXUDCBAD            GET USERS DCB ADDR       Y02072
         USING SAMSIOB,RIOB                                      Y02072
         ST    RWK1,IOBDCBPT-1          INIT DCB PT IN IOB.      Y02072
         MVC   IOBSEEK(8),DCBFDAD       INIT. ALL IOB FDAD'S. SUPPORTS
*                                       EVERYBODY INCLUDING 2321.
         LA    RCPBASE,CHANPGM          GET CHP ADDR             S20201
         ST    RCPBASE,IOBSTART-D1      PUT IN IOB               S20201
*
* TEST FOR INPUT ONLY
*
         USING DEB,RDEB                 DEB ADDRESSABILITY       S20201
         IF    DEBOPATB,ISNOT=OUTPUT,GOTO=RCPREQD
         DROP  RDEB                                              S20201
BUILDWCP EQU   *
         SR    RCPBASE,RCPBASE         NEEDED ON 2ND PASS.
         IC    RCPBASE,DCBWCPO          NEED OFFSET TO BUILD
         AR    RCPBASE,RIOB             WRITE CP BASE ADDRESS.
         USING WCPMAP,RCPBASE
         SR    RSTEPPER,RSTEPPER       NEEDED ON 2ND PASS.
         IC    RSTEPPER,DCBWCPL         BUILD ADDRESS OF COUNT FIELDS
         SLL   RSTEPPER,3               APPENDED TO WCP.
         AR    RSTEPPER,RCPBASE         ADDRESS OF FIRST COUNT FIELD.
         USING COUNTFLD,RSTEPPER
*
*   RIOB = IOB ADDRESS.
*   RCPBASE = CHANNEL PROGRAM ADDRESS.
*   RSTEPPER = COUNT FIELD AND S.A. ADDRESS.
*
* IOB INITIALIZED EXCEPT FOR LINK FIELD.
*
* BUILD WRITE CHANNEL PROGRAMS.  THE CORRECT NUMBER OF CP SEGMENTS IS
* THAT WHICH CAN BE BUILT UP TO THE FIRST COUNT FIELD APPENDED TO THIS
* IOB.
*
*
* CHECK FOR RCD READY FEATURE AND SET UP SET THETA COMMAND IF
* THE FEATURE IS ON ALL THE DATA SETS DEVICES
*
*
         TM    JFCBMASK+D6,NORCDRY      ANY DEVICES W/O RCD      S20201
*                                       READY                    S20201
         BO    NOFET3                   BRANCH IF YES            S20201
         BAL   RD,SOP6STA               GO BUILD SET SECTOR CCW  S20201
         AH    RCPBASE,DBLWDLEN         INCR BASE FOR SET SECTOR S20201
NOFET3   EQU   *                                                 S20201
CCW1     EQU   *
         LA    RD,IOBSEEK+3             GET ADDRESS OF CCHHR IN IOB.
         ST    RD,SRCHADDR              PUT IN FIRST SEARCH COMMAND.
         MVI   SRCHOPCD,SRCHEQ          SET OP CODE = SEARCH.
*
* BUILD  FIRST  TIC CCW.
*
CCW2     EQU   *
         ST    RCPBASE,TICADDR          STORE ADDRESS OF PREVIOUS SRCH.
         MVC   SRCHFLAG(B5),FLAGLEN     FLAGS, LEN, TIC OP CODE  S20201
*
*
         LR    RVALCHK,RSTEPPER         COPY PTR TO BEGINNING OF COUNTS
*                                       AND S.A.'S. WILL BE USED FOR
*                                       VAL CHK CP ADDRESSABILITY (IF
*                                       NEEDED) AND TO FLAG THE LAST
*                                       CCW OF THE WRITE SEGMENTS.
*
         IF    DCBOPTCD,ISNOT=VALCHK,GOTO=FLAGLAST
*
* VALIDITY CHECK IS CALLED. BUILD THE VAL CHK CP SEGMENT WHILE ADDR-
* ESSABILITY IS AVAILABLE. CCW'S TO BE BUILT ARE A SEEK (CCW7), SEARCH
* (CCW8), TIC (CCW9) AND READ DATA (CCW10).
*
         SH    RVALCHK,VALCKLEN         BACK UP TO BEGINNING OF VAL CHK
*                                       CP.
         TM    JFCBMASK+D6,NORCDRY      ANY DEVICES W/O RCD      S20201
*                                       READY                    S20201
         BO    FEAT7                    BRANCH IF YES            S20201
         SH    RVALCHK,DBLWDLEN         DECREMENT ADDITIONAL CCW S20201
*                                       SINCE FEATURES WRITE CHK
*                                       CHP LARGER
FEAT7    EQU   *                                                 S20201
         USING VCMAP,RVALCHK            VAL CHK SEGMENT ADDRESSABILITY.
*
CCW7     EQU   *                        BUILD SEEK COMMAND. SEEK
*                                       ADDRESS SAME AS CCHH IN FIRST
*                                       COUNT FIELD.
         LA    RD,IOBSEEK+1             POINTS TO IOB SEEK ADDR.
         ST    RD,SEEKADDR
         MVI   SEEKOPCD,SEEKCYL
         MVI   SEEKFLAG,CC              COMMAND CHAIN.
         MVI   SEEKLEN,BBCCHH           LENGTH OF A 'BBCCHH'.
         TM    JFCBMASK+D6,NORCDRY      ANY DEVICES W/O RCD      S20201
*                                       READY                    S20201
         BO    NOFET9                   BRANCH IF YES            S20201
         DROP  RIOB                                              S20201
         USING FORCORE,RCORE            OPEN COMMON WKAREA       S21042
         L     RD,DXCCW11               GET SECTOR ADDR          Y02072
         USING SAMSIOB,RIOB                                      S20201
         ST    RD,D8(RVALCHK)           PUT IN CCW               S20201
         OI    D12(RVALCHK),CC          TURN ON COMMAND CHAIN    S20201
         MVI  D15(RVALCHK),B1           SET BYTE COUNT TO ONE    S20201
         MVI   D8(RVALCHK),SETSC        PUT IN CCW CMND          S20201
         AH    RVALCHK,DBLWDLEN         INCREMENT RVALCHK BASE   S20201
*                                       REG                      S20201
*                                       TO ELIMINATE SET SECTOR
*                                       OFFSETS IN DSECT
NOFET9   EQU   *                                                 S20201
CCW8     EQU   *                        BUILD SEARCH ID EQUAL WITH SAME
*                                       CCHH AS THE SEEK.
         ST    RSTEPPER,VCSRCHAD        ADDRESS OF FIRST COUNT FIELD.
         MVI   VCSRCHOP,SRCHEQ          OP CODE.
*
CCW9     EQU   *                        BUILD A TIC BACK TO CCW8.
         LA    RD,VCSRCH                ADDRESS OF SEARCH.
         ST    RD,VCTICAD               PUT IN TIC ADDRESS.
         MVC   VCSRCHFL(B5),FLAGLEN     FLAGS, LEN, TIC OP CODE  S20201
* TIC COMPLETE. NO FLAGS REQ'D.
*
CCW10    EQU   *                        BUILD READ DATA WITH SKIP.
         MVI   VCRDOP,READKD            TO READ DATA + KEYS (IF ANY).
         MVI   VCRDFLAG,SKIP            SKIP FLAG.
* SKIP ON MAKES ADDRESS IMMATERIAL, LENGTH WILL BE SET AT EOB TIME.
*
* VALIDITY CHECK CP IS BUILT.
*
         TM    JFCBMASK+D6,NORCDRY      ANY DEVICES W/O RCD      S20201
*                                       READY                    S20201
         BO    FEATL17                  BRANCH IF YES            S20201
         SH    RVALCHK,DBLWDLEN         IF YES RVALCHK WAS INCR  S20201
*                                       TO WRT CHK PGM PLUS  8  TO
*                                       ELIMINATE SET SECTOR OFF-
*                                       SETS AND NOW MUST BE RE-
*                                       STORED
FEATL17  EQU   *                                                 S20201
         ST    RVALCHK,PARASITE         PUT VAL CHK CP ADDRESS IN
*                                       R.H. OF CCW2.
         MVI   PARASITE,TIC             PUT IN TIC OP CODE, OK BECAUSE
*                                       BITS 37-39=0.
*
* PARASITE TIC IN CCW2 WILL BE USED TO TRANSFER-IN-CHANNEL AROUND ANY
* UNUSED CP SEGMENTS WHEN WRITE CHECK IS CALLED.
*
         DROP  RVALCHK                  RELINQUISH VC CP ADDRESS.
*
FLAGLAST EQU   *
*
         SH    RVALCHK,DBLWDLEN         THE CCW BEFOR THE VAL CHK CP
*                                       (OR THE S.A.'S AND COUNT FLDS)
*                                       IS THE END OF THE WRITE SEGMENT
*                                       CP'S. POINT TO IT.
         TM    JFCBMASK+D6,NORCDRY      ANY DEVICES W/O RCD      S20201
*                                       READY                    S20201
         BO    NOFETFLG                 BRANCH IF YES            S20201
         ST    RVALCHK,PARASITE         PUT RD SECT ADDR IN      S20201
*                                       PARASIT                  S20201
         MVI   PARASITE,TIC             PUT IN TIC CMND          S20201
         SH    RVALCHK,DBLWDLEN         BACK UP TO NULL OP CD    S20201
NOFETFLG EQU   *                                                 S20201
         MVI   0(RVALCHK),WSCKD         FLAG LAST CCW4 OP CODE BYTE
*                                       WITH A NON-ZERO VALUE.
*
         LA    RF,NULLOPCD              ADDRESS OF CCW WHICH RECEIVES
         BAL   RE,GETBUFAD              BUFFER ADDRESS.
*
         MVC   KEYLENTH(1),DCBKEYLE     KEY WILL BE WRITTEN ON FIRST
*                                       RECORD SEGMENT ONLY.
*
CCW3     EQU   *                        ALL FIRST TIME LOGIC IS DONE.
*                                       BEGIN HERE WITH A LOOP TO BUILD
*                                       THE REST OF CP SEG 1 (CCW'S 3
*                                       AND 4) AND ALL REMAINING SEG-
*                                       MENTS (MADE UP OF CCW'S 5,6,3,4
*                                       IN THAT ORDER.)
*
         ST    RSTEPPER,COUNTADR        FILL IN COUNT FIELD ADDRESS.
         MVI   COUNTLEN,EIGHT           LENGTH OF A COUNT FIELD.
         MVI   WRTFLAG,DC               DATA CHAIN TO NEXT CCW.
*
CCW4     EQU   *                        THIS IS THE CCW THAT WRITES THE
*                                       DATA. NOTHING IS KNOWN AT OPEN
*                                       TIME EXCEPT THAT IT IS COMMAND
*                                       CHAINED, AND THE FIRST CCW4
*                                       WILL HAVE THE BUFFER ADDRESS IF
*                                       QSAM IS USED
*                                       IF IT IS THE LAST CCW4, THE OP
*                                       CODE BYTE HAS BEEN SET TO NON-
*                                       ZERO.
*
         MVI   RECORD,FIRST             INIT. 'R' TO 1.
         CLI   NULLOPCD,ZERO            IS THIS THE LAST CP SEGMENT?
         BNE   THRULOOP                 YES. BRANCH TO DO FINAL LOGIC.
*
* PREPARE TO BUILD NEXT CP SEGMENT. ADVANCE THE CP ADDR REG TO NEXT CP,
* AND MOVE THE COUNT FIELD AND S.A. POINTER TO NEXT S.A.
*
         LA    RCPBASE,CPSEGLEN(RCPBASE)   POINT TO NEXT SEGMENT.
         LA    R13,EIGHT(R13)           POINT TO NEXT S.A.         DM0I
R13      EQU   13                       13                         DM0I
*                                       THE COUNT FIELD OVERLAY IS NOT
*                                       VALID UNTIL RSTEPPER IS BUMPED
*                                       8 MORE.
*
CCW5     EQU   *                        SEARCH
*
         ST    RSTEPPER,SRCHADDR        PUT IN POINTER TO SEARCH ADDR.
*
CCW6     EQU   *                        TIC
*
         ST    RCPBASE,TICADDR          STORE ADDRESS OF CCW5.
         MVC   SRCHFLAG(B5),FLAGLEN     FLAGS, LEN, AND TIC OP   S20201
*                                       CODE                     S20201
*
         TM    JFCBMASK+D6,NORCDRY      ANY DEVICES W/O RCD      S20201
*                                       READY                    S20201
         BNO   FEATAX                   BRANCH IF NO             S20201
         IF    DCBOPTCD,ISNOT=VALCHK,GOTO=PTRUPBY8
*
* VAL CHK CALLED. NEED A PARASITE SEARCH ADDRESS IN CCW6 (TIC) TO BE
* USED FOR RECONSTRUCTION OF CCW5 AT EOB TIME.
FEATAX   EQU   *                                                 S20201
*
         ST    RSTEPPER,PARASITE        PUT IN SEARCH ADDRESS.
*                                       SEARCH OP CODE IS IMPLIED, AND
*                                       FILLED IN AT EOB.
*
PTRUPBY8 EQU   *
         LA    R13,EIGHT(R13)           POINT TO NEXT COUNT FIELD  DM0I
*                                       OVERLAY NOW APPLIES.
*
         B     CCW3                     CLOSE THE LOOP FOR BUILDING
*                                       CCW'S.
*
THRULOOP EQU   *                        CCW'S ARE BUILT. FINAL LOGIC TO
         TM    JFCBMASK+D6,NORCDRY      ANY DEVICES W/O RCD      S20201
*                                       READY                    S20201
         BO    NOFET19                  BRANCH IF YES            S20201
         BAL   RD,SOP6RTA               GO BUILD READ SECTOR CCW S20201
NOFET19  EQU   *                                                 S20201
         USING DEB,RDEB                                          S20201
*
*
*
         IF    DEBOPATB,IS=OUTPUT,GOTO=NEXTIOB
*  MUST DROP RDEB BECAUSE  THE FORECORE DSECT LAYOUT PRODUCES A
* SMALLER OFFSET WITH RDEB FOR 'CHANPGM'. RIOB IS THE DESIRED REG.
         DROP  RDEB
         B     BUILDRCP                 TO BUILD  RECORD READ CHAN.DM0I
RCPREQD  EQU   *
         USING RCPOVLAY,RCPBASE
         LA    RSTEPPER,RDCCW           STEPPER+8=NEXT IOB.
         TM    JFCBMASK+D6,NORCDRY      ANY DEVICES W/O RCD      S20201
*                                       READY                    S20201
         BO    NOFET25                  BRANCH IF YES            S20201
         LA    RSTEPPER,SXTN(RSTEPPER)  INCR FOR RCD READY       S20201
NOFET25  EQU   *                                                 S20201
BUILDRCP EQU   *
         LA    RCPBASE,CHANPGM          READ CP CONTIG. TO IOB.
         USING RCPOVLAY,RCPBASE
         TM    JFCBMASK+D6,NORCDRY      ANY DEVICESW/O RCD READY S20201
         BO    NOTRR2A                  BRANCH IF YES            S20201
         BAL   RD,SOP6STA               GO BUILD SET SECTOR CCW  S20201
         AH    RCPBASE,DBLWDLEN         INCR BASE FOR SET SECTOR S20201
NOTRR2A  EQU   *                                                 S20201
CCWA     EQU   *
         LA    RD,IOBSEEK+3             SEARCH ON IOB FDAD.
         ST    RD,SRCHCCW+ADDRESS       FILL IN SEARCH ADDRESS.
         MVI   SRCHCCW+OPCODE,SRCHEQ    SEARCH OP CODE .
         MVC   SRCHCCW+FLAGS(4),FLAGLEN SET COMMAND CHAIN ON, LENGTH=
*                                       5=L'CCHHR.
CCWB     EQU   *
         LA    RD,SRCHCCW               GET SEARCH CCW ADDR      S20201
         ST    RD,TICCCW+ADDRESS        PUT IN TIC CCW           S20201
         MVC   SRCHCCW+FLAGS(B5),FLAGLEN FLAGS,LEN TIC OP CODE   S20201
CCWC     EQU   *
         MVI   SKIPCCW+OPCODE,READDATA  CCW TO SKIP OVER PREVIOUS.
         MVI   SKIPCCW+FLAGS,SKIP+SILI+CC
         MVI   SKIPCCW+LENFLD+1,NOTZERO
CCWD     EQU   *
         IF    DCBCIND2,IS=QSAM,GOTO=TESTBUF
         MVI   RKDCCW+OPCODE,READKD     CCWE, USING THE QSAM DECISION.
         CLI   DCBNCP,ZERO+1
         B     DECIDE                   IF MORE THAN ONE IOB.
TESTBUF  MVI   RDCCW+OPCODE,READDATA    CCWE, USING THE QSAM DECISION.
         CLI   DCBBUFNO,ZERO+1
DECIDE   BH    IOBAREQD                 READ INTO NEXT IOB IF THERE
*                                       IS ONE.
         DROP  RIOB                                              YM1086
         L     RDCB,DXUDCBAD            USERS COPY OF DCB        Y02072
         LA    RD,DCBFDAD+3             ONLY ONE IOB. READ COUNT INTO
*                                       DCBFDAD.
         L     RDCB,0(RPARC)            PROTECTED COPY OF DCB    Y02072
         B     STOREIT
IOBAREQD EQU   *
         USING SAMSIOB-8,RSTEPPER       STEPPER+8=NEXT IOB.
         LA    RD,IOBSEEK+3             NEXT IOB SEEK.
         DROP  RSTEPPER