         MACRO
&NAME    PMEND &GENSUB=NO,                                             -
               &RC=,&R0=,&R1=,&R2=,&R3=,&R4=,&R5=,&R6=,&R7=,&R8=,      -
               &R9=,&R10=,&R11=,&R12=,&R13=,&R14=,&R15=
.*             USED IN THE FORMAT:
.*
.*              NAME PMEND RETURNCODE
.*
.*             WHERE
.*              NAME IS AN OPTIONAL IDENTIFIER
.*              PMEND IS THE MACRO NAME
.*              RETURNCODE IS ONE OR MORE RETURN CODES.
.*
.*             THE MACRO DOES NOT ALTER THE CONTENTS OF ANY REGISTERS.
.*             THE FOLLOWING GLOBAL SYMBOLS ARE USED BY PM SERIES
.*              MACROS AS AT 01/02/78.
         GBLA  &PMID
.*             &PMID IS A GLOBAL IDENTIFICATION FIELD USED BY ALL
.*              PM SERIES MACROS. IT IS USED IN THE FORMAT PM&PMID AND
.*              IS INCREMENTED BY ONE FOR EACH NEW IDENTIFICATION
.*              GENERATED.
         GBLA  &PMENDID
.*             &PMENDID IS A GLOBAL IDENTIFIER OF THE PMEND GENERATED
.*              SAVE AREA.
         GBLA  &PMPARID
.*             &PMPARID IS A GLOBAL IDENTIFIER OF THE PMPAR GENERATED
.*              SAVE AREA.
         GBLA  &PMSTAID
.*             &PMSTAID IS A GLOBAL IDENTIFIER OF THE OCCURENCE OF
.*              PMSTA AND PMSTR.
         GBLA  &PMSTARE
.*             &PMSTARE IS A GLOBAL IDENTIFIER OF THE PMSTA GENERATED
.*              RETURN ADDRESS.
         GBLA  &PMSTASA
.*             &PMSTASA IS A GLOBAL IDENTIFIER OF THE PMSTA GENERATED
.*              SAVE AREA.
         GBLC  &PMSTASY
.*             &PMSTASY IS A GLOBAL IDENTIFIER OF THE TYPE OF OPERATING
.*              SYSTEM THAT WILL BE USED TO EXECUTE THE PROGRAM
.*              GENERATED BY THESE MACOS.
         LCLA  &A,&B,&C,&D,&E,&F,&G,&H,&I,&J,&K,&L,&M,&N
         LCLC  &O,&P,&Q,&R,&S,&T,&U,&V,&W,&X,&Y,&Z
         AIF   ('&GENSUB' EQ 'YES').ZGENSUB
         AIF   ('&NAME' EQ '').NONAME
&NAME    DS    0H
.NONAME  ANOP
         AIF   ('&PMSTASY' EQ 'DOS').R15Z
         ST    R13,PM&PMSTASA+8
         L     R13,PM&PMSTASA+4
         AIF   ('&RC' EQ '').RCZ
         AIF   ('&RC'(1,1) EQ '''').RCL
         AIF   ('&RC'(1,1) EQ '(').RCR
         MVC   16(4,R13),&RC                     SAVE RETURN CODE.
         AGO   .RCZ
.RCL     ANOP
         MVC   16(4,R13),=F&RC                    SAVE RETURN CODE.
         AGO   .RCZ
.RCR     ANOP
         ST    &RC,16(R13)                      SAVE RETURN CODE.
         AGO   .RCZ
.RCZ     ANOP
         AIF   ('&R0' EQ '').R0Z
         AIF   ('&R0'(1,1) EQ '''').R0L
         AIF   ('&R0'(1,1) EQ '(').R0R
         MVC   20(4,R13),&R0     STORE THE PARAMETER FOR R0.
         AGO   .R0Z
.R0L     ANOP
         MVC   20(4,R13),=F&R0   STORE THE PARAMETER FOR R0.
         AGO   .R0Z
.R0R     ANOP
         ST    &R0,20(R13)     STORE THE PARAMETER FOR R0.
         AGO   .R0Z
.R0Z     ANOP
         AIF   ('&R1' EQ '').R1Z
         AIF   ('&R1'(1,1) EQ '''').R1L
         AIF   ('&R1'(1,1) EQ '(').R1R
         MVC   24(4,R13),&R1     STORE THE PARAMETER FOR R1.
         AGO   .R1Z
.R1L     ANOP
         MVC   24(4,R13),=F&R1   STORE THE PARAMETER FOR R1.
         AGO   .R1Z
.R1R     ANOP
         ST    &R1,24(R13)         STORE THE PARAMETER FOR R1.
         AGO   .R1Z
.R1Z     ANOP
         AIF   ('&R2' EQ '').R2Z
         AIF   ('&R2'(1,1) EQ '''').R2L
         AIF   ('&R2'(1,1) EQ '(').R2R
         MVC   28(4,R13),&R2     STORE THE PARAMETER FOR R2.
         AGO   .R2Z
.R2L     ANOP
         MVC   28(4,R13),=F&R2   STORE THE PARAMETER FOR R2.
         AGO   .R2Z
.R2R     ANOP
         ST    &R2,28(R13)       STORE THE PARAMETER FOR R2.
         AGO   .R2Z
.R2Z     ANOP
         AIF   ('&R3' EQ '').R3Z
         AIF   ('&R3'(1,1) EQ '''').R3L
         AIF   ('&R3'(1,1) EQ '(').R3R
         MVC   32(4,4,R13),&R3       STORE THE PARAMETER FOR R3.
         AGO   .R3Z
.R3L     ANOP
         MVC   32(4,R13),=F&R3   STORE THE PARAMETER FOR R3.
         AGO   .R3Z
.R3R     ANOP
         ST    &R3,32(R13)       STORE THE PARAMETER FOR R3.
         AGO   .R3Z
.R3Z     ANOP
         AIF   ('&R4' EQ '').R4Z
         AIF   ('&R4'(1,1) EQ '''').R4L
         AIF   ('&R4'(1,1) EQ '(').R4R
         MVC   36(4,R13),&R4     STORE THE PARAMETER FOR R4.
         AGO   .R4Z
.R4L     ANOP
         MVC   36(4,R13),=F&R4   STORE THE PARAMETER FOR R4.
         AGO   .R4Z
.R4R     ANOP
         ST    &R4,36(R13)       STORE THE PARAMETER FOR R4.
         AGO   .R4Z
.R4Z     ANOP
         AIF   ('&R5' EQ '').R5Z
         AIF   ('&R5'(1,1) EQ '''').R5L
         AIF   ('&R5'(1,1) EQ '(').R5R
         MVC   40(4,R13),&R5     STORE THE PARAMETER FOR R5.
         AGO   .R5Z
.R5L     ANOP
         MVC   40(4,R13),=F&R5   STORE THE PARAMETER FOR R5.
         AGO   .R5Z
.R5R     ANOP
         ST    &R5,40(R13)       STORE THE PARAMETER FOR R5.
         AGO   .R5Z
.R5Z     ANOP
         AIF   ('&R6' EQ '').R6Z
         AIF   ('&R6'(1,1) EQ '''').R6L
         AIF   ('&R6'(1,1) EQ '(').R6R
         MVC   44(4,R13),&R6     STORE THE PARAMETER FOR R6.
         AGO   .R6Z
.R6L     ANOP
         MVC   44(4,R13),=F&R6   STORE THE PARAMETER FOR R6.
         AGO   .R6Z
.R6R     ANOP
         ST    &R6,44(R13)       STORE THE PARAMETER FOR R6.
         AGO   .R6Z
.R6Z     ANOP
         AIF   ('&R7' EQ '').R7Z
         AIF   ('&R7'(1,1) EQ '''').R7L
         AIF   ('&R7'(1,1) EQ '(').R7R
         MVC   48(4,R13),&R7     STORE THE PARAMETER FOR R7.
         AGO   .R7Z
.R7L     ANOP
         MVC   48(4,R13),=F&R7   STORE THE PARAMETER FOR R7.
         AGO   .R7Z
.R7R     ANOP
         ST    &R7,48(R13)                STORE THE PARAMETER FOR R7.
         AGO   .R7Z
.R7Z     ANOP
         AIF   ('&R8' EQ '').R8Z
         AIF   ('&R8'(1,1) EQ '''').R8L
         AIF   ('&R8'(1,1) EQ '(').R8R
         MVC   52(4,R13),&R8              STORE THE PARAMETER FOR R8.
         AGO   .R8Z
.R8L     ANOP
         MVC   52(4,R13),=F&R8            STORE THE PARAMETER FOR R8.
         AGO   .R8Z
.R8R     ANOP
         ST    &R8,52(R13)                STORE THE PARAMETER FOR R8.
         AGO   .R8Z
.R8Z     ANOP
         AIF   ('&R9' EQ '').R9Z
         AIF   ('&R9'(1,1) EQ '''').R9L
         AIF   ('&R9'(1,1) EQ '(').R9R
         MVC   56(4,R13),&R9              STORE THE PARAMETER FOR R9.
         AGO   .R9Z
.R9L     ANOP
         MVC   56(4,R13),=F&R9   STORE THE PARAMETER FOR R9.
         AGO   .R9Z
.R9R     ANOP
         ST    &R9,56(R13)       STORE THE PARAMETER FOR R9.
         AGO   .R9Z
.R9Z     ANOP
         AIF   ('&R10' EQ '').R10Z
         AIF   ('&R10'(1,1) EQ '''').R10L
         AIF   ('&R10'(1,1) EQ '(').R10R
         MVC   60(4,R13),&R10    STORE THE PARAMETER FOR R10.
         AGO   .R10Z
.R10L    ANOP
         MVC   60(4,R13),=F&R10  STORE THE PARAMETER FOR R10.
         AGO   .R10Z
.R10R    ANOP
         ST    &R10,60(R13)      STORE THE PARAMETER FOR R10.
         AGO   .R10Z
.R10Z    ANOP
         AIF   ('&R11' EQ '').R11Z
         AIF   ('&R11'(1,1) EQ '''').R11L
         AIF   ('&R11'(1,1) EQ '(').R11R
         MVC   64(4,R13),&R11    STORE THE PARAMETER FOR R11.
         AGO   .R11Z
.R11L    ANOP
         MVC   64(4,R13),=F&R11  STORE THE PARAMETER FOR R11.
         AGO   .R11Z
.R11R    ANOP
         ST    &R11,64(R13)      STORE THE PARAMETER FOR R11.
         AGO   .R11Z
.R11Z    ANOP
         AIF   ('&R12' EQ '').R12Z
         AIF   ('&R12'(1,1) EQ '''').R12L
         AIF   ('&R12'(1,1) EQ '(').R12R
         MVC   68(4,R13),&R12    STORE THE PARAMETER FOR R12.
         AGO   .R12Z
.R12L    ANOP
         MVC   68(4,R13),=F&R12  STORE THE PARAMETER FOR R12.
         AGO   .R12Z
.R12R    ANOP
         ST    &R12,68(R13)      STORE THE PARAMETER FOR R12.
         AGO   .R12Z
.R12Z    ANOP
         AIF   ('&R13' EQ '').R13Z
         AIF   ('&R13'(1,1) EQ '''').R13L
         AIF   ('&R13'(1,1) EQ '(').R13R
         MVC   16(4,R13),&R13    STORE THE PARAMETER FOR R13.
         AGO   .R13Z
.R13L    ANOP
         MVC   16(4,R13),=F&R13  STORE THE PARAMETER FOR R13.
         AGO   .R13Z
.R13R    ANOP
         AIF   ('&R13' EQ 'R13').R13S
         ST    &R13,16(R13)      STORE THE PARAMETER FOR R13.
         AGO   .R13Z
.R13S    ANOP
         MVC   16(4,R13),PM&PMSTASA+8   STORE THE PARAMETER FOR R13.
         AGO   .R13Z
.R13Z    ANOP
         AIF   ('&R14' EQ '').R14Z
         AIF   ('&R14'(1,1) EQ '''').R14L
         AIF   ('&R14'(1,1) EQ '(').R14R
         MVC   12(4,R13),&R14    STORE THE PARAMETER FOR R14.
         AGO   .R14Z
.R14L    ANOP
         MVC   12(4,R13),=F&R14  STORE THE PARAMETER FOR R14.
         AGO   .R14Z
.R14R    ANOP
         ST    &R14,12(R13)      STORE THE PARAMETER FOR R14.
         AGO   .R14Z
.R14Z    ANOP
         AIF   ('&R15' EQ '').R15Z
         AIF   ('&R15'(1,1) EQ '''').R15L
         AIF   ('&R15'(1,1) EQ '(').R15R
         MVC   16(4,R13),&R15    STORE THE PARAMETER FOR R15.
         AGO   .R15Z
.R15L    ANOP
         MVC   16(4,R13),=F&R15  STORE THE PARAMETER FOR R15.
         AGO   .R15Z
.R15R    ANOP
         ST    &R15,16(R13)      STORE THE PARAMETER FOR R15.
         AGO   .R15Z
.R15Z    ANOP
         B     PM&PMSTARE
         EJECT
         MEXIT
.ZGENSUB ANOP
         MEND
