         MACRO
&NAME  IODEVICE &UNIT=,&MODEL=,&ADDRESS=,&FEATURE=,&OPTCHAN=,&IOREQUE=,X
               &SEEKQUE=,&TRNMODE=,&ADAPTER=,&SETADDR=,                X
               &DEVTYPE=,&ERRTAB=,&NUMSECT=,&OBRCNT=,&AP=NO      S21167
         COPY  SGGBLPAK
.*
.*       SUPPORT CODE S99235 IS USED TO REPRESENT CODE CHANGES FOR
.*       158/158 CONSOLE AND 168 CPU.
.*
.*     OS69755,OS69505,OS69945,OS67531,OS73309,OS74355,@SA78185
 LCLA &A,&I,&ML,&Q,&UL,&H,&CB
         LCLA &X,&Z,&M,&L,&DIV,&QUOT,&DIFF,&REM
         LCLB &IOC,&MULT,&QUIT,&CHKSW
         LCLB &ALT(15),&LOC,&G,&J,&S,&DOC,&KB,&KB7,&KB8
 LCLC &UNIT2,&MODEL2,&B,&C,&D,&E,&F,&ID,&N,&ADDR,&DENS
         LCLC  &O,&OA,&OB,&OC,&OD,&OE,&OF,&OG,&OH
         ACTR  10000                                            SA69505
&QUIT    SETB  (&SGQUITB)
&SGQUITB SETB  0
.ADLOOP  ANOP
         AIF   (&SGMENTB(4)).START      IODEV USED BEFOR CK NO. CALL
&SGMENTB(4)  SETB  1                    SET ENTRY SW FOR 1ST IODEV CALL
         AIF   (&LIMIT(1)).MAX1
         AIF   (&LIMIT(2)).MAX2
         AIF (&LIMIT(3)).MAX3
&SGMAXA(2)  SETA  96
         AGO   .MA
.MAX1    ANOP
&SGMAXA(2)  SETA  248
         AGO   .MA
.MAX2    ANOP
&SGMAXA(2)  SETA  32
         AGO .MA
.MAX3  ANOP
&SGMAXA(2) SETA 768
.MA MNOTE *,'      MAXIMUM OF &SGMAXA(2) I/O DEVICES ALLOWED'
.START   ANOP
&SGCNTRA(3) SETA &SGCNTRA(3)+1          COUNT OF DEVICES TO BE SYSGENED
&I       SETA  &SGCNTRA(3)              SET LCLA PTR FOR SETTING SWT.S
&Z      SETA  &SGCNTRA(2)    GET I/O CONTROL UNIT COUNT
         AIF   ('&NAME' EQ '').INSERT   DID USER SUPPLY MACRO-CALL NAME
&ID      SETC  '&NAME'                  PUT USER'S CALL-NAME IN MNOTES
         AGO   .TESTCNT                 GO TEST FOR MAX DEV.S SYSGENED
.INSERT  ANOP                           ENTER RTN TO PLUG IN MACRO NO.
&ID      SETC  'DEV.#&I'                PUT MACRO-CALL-NO. INTO MNOTES
.TESTCNT  AIF  (&SGCNTRA(3) GE &SGMAXA(2)+1).MX
 AIF ((&SGCNTRA(3) GT 1024) OR (&SGCNTRA(3)+&SG2321A GT 1355)).MY
         AIF   (T'&UNIT EQ 'O').AA      IF UNIT OMITTED GO TO ERROR RTN
&UL      SETA  K'&UNIT                  PUT CNT OF UNIT CHAR IN TST BOX
         AIF   (&UL LE 5).R1            IF UNIT CNT OK,BR TO SAVE RTN
&UL      SETA  5                        IF UNIT CNT BAD,ONLY USE CH 1-5
.R1      ANOP                           ENTER SAVE RTN FOR UNIT CHAR.S
&UNIT2   SETC  '&UNIT'(1,&UL)           SAVE 1ST 5 CHAR UNIT FOR ER MSG
         AIF   (T'&MODEL EQ 'O').R4     IF MOD OMIT,PUT UNT ONLY IN &&C
&LOC     SETB  1                        MOD LOCAL USED LATER FOR TESTNG
&ML      SETA  K'&MODEL                 PUT CNT OF MOD. CHAR IN TST BOX
         AIF   (&ML LE 2).R3            IF MOD. CNT OK,BR TO SAVE RTN
&ML      SETA  2                        IF MOD. CNT BAD,ONLY USE CH 1-2
.R3      ANOP                           ENTER SAVE RTN FOR MODEL CHAR.S
&MODEL2  SETC   '-'.'&MODEL'(1,&ML)     PUT MODEL SPF'D INTO CHARTR BOX
.R4      ANOP                           INITIALIZE &&C FOR ERROR MSGS
&C       SETC  '&UNIT2&MODEL2'          USE 5 UNIT/2 MOD CHAR IN ER MSG
&ML      SETA  0                        CLR FOR USE AS MAX OPTCHAN CNTR
       AIF ('&UNIT' EQ '2401').T2400    IF UNIT=2401, GO 2400 TAPE RTN
       AIF ('&UNIT' EQ '2402').T2400    IF UNIT=2402, GO 2400 TAPE RTN
       AIF ('&UNIT' EQ '2403').T2400    IF UNIT=2403, GO 2400 TAPE RTN
       AIF ('&UNIT' EQ '2404').T2404    IF UNIT=2404, GO 2404 TAPE RTN
       AIF ('&UNIT' EQ '2415').T2400    IF UNIT=2415, GO 2400 TAPE RTN
       AIF ('&UNIT' EQ '2420').T2400    IF UNIT=2420, GO 2400 TAPE RTN
       AIF ('&UNIT' EQ '3420').T3420    IF UNIT=3420, GO 3420 TAPE RTN
         AIF   ('&UNIT' EQ '3410').T3410    IF UNIT=3410, GO 3410 TAPE
       AIF ('&UNIT' EQ '2495').T2495    IF UNIT=2495, GO 2495 CART RTN
       AIF ('&UNIT' EQ '7340').T7340    IF UNIT=7340, GO 7340 HYPTP RTN
       AIF ('&UNIT' EQ '1285').OPTCHAR  IF UNIT=1285, GO OP RDR RTN
       AIF ('&UNIT' EQ '1287').OPTCHAR  IF UNIT=1287, GO OP RDR RTN
       AIF ('&UNIT' EQ '1288').OPTCHAR  IF UNIT=1288, GO OP RDR RTN
       AIF ('&UNIT' EQ '2301').D2301    IF UNIT=2301, GO 2301 DRUM RTN
       AIF ('&UNIT' EQ '2302').D2302    IF UNIT=2302, GO 2302 DISK RTN
         AIF   ('&UNIT' EQ '2303').D2303  TO DRUM RTN
       AIF ('&UNIT' EQ '2311').D2311    IF UNIT=2311, GO 2311 DISK RTN
         AIF   ('&UNIT' EQ '2314').D2314
       AIF ('&UNIT' EQ '3330').D3330             3330
       AIF ('&UNIT' EQ '2305').D2305             2305
       AIF ('&UNIT' EQ '2321').D2321    IF UNIT=2321, GO 2321 DTCEL RTN
       AIF ('&UNIT' EQ '1052').K1052    IF UNIT=1052, GO 1052 KBPRT RTN
       AIF ('&UNIT' EQ '3210').K3210    IF UNIT=3210, GO 3210 CNSLE RTN
       AIF ('&UNIT' EQ '3213').K3213                            S99235
       AIF ('&UNIT' EQ '3215').K3215    IF UNIT=3215, GO 3215 CNSLE RTN
       AIF ('&UNIT' EQ '5450').DIS5450  IF UNIT=5450, GO 5450 DSPLY RTN
       AIF ('&UNIT' EQ '3066').DIS5450  IF UNIT=3066, GO 3066 DSPLY RTN
       AIF ('&UNIT' EQ '3158').DIS3158                          S99235
       AIF ('&UNIT' EQ '2250').DIS2250  IF UNIT=2250, GO 2250 DSPLY RTN
 AIF ('&UNIT' EQ '2260' AND '&ADAPTER' EQ '').DS2260 IF 2260GR BR GR RT
 AIF (&SGCNTRA(2) EQ 0 OR &SGCNTRA(2) GT 255).R6
       AIF   ('&UNIT' EQ '1053' AND &SGUNT2B(&SGCNTRA(2)) AND &SGUNU8B(X
               &SGCNTRA(2))).DIS1053   IF UNIT=1053 AND CONTROL=2848
.R6 ANOP
       AIF ('&UNIT' EQ '3277').DIS3277  IF UNIT=3277, GO 3277 DSPLY RTN
       AIF ('&UNIT' EQ '3284').PRT3284  IF UNIT=3284, GO 3284 PRNTR RTN
       AIF ('&UNIT' EQ '3286').PRT3286  IF UNIT=3286, GO 3286 PRNTR RTN
       AIF ('&UNIT' EQ '2280').DS2280   IS UNIT 2280
       AIF  ('&UNIT' EQ '2282').DS2282  IS UNIT 2282
       AIF ('&UNIT' EQ '1403').PRT1403  IF UNIT 1403
       AIF ('&UNIT' EQ '1404').PRT1404  IF UNIT=1404, GO 1404 PRNTR RTN
       AIF ('&UNIT' EQ '1443').PRT1443  IF UNIT=1443, GO 1443 PRNTR RTN
       AIF ('&UNIT' EQ '3211').PRT3211   IF UNIT 3211
       AIF ('&UNIT' EQ '1442').CRP1442  IF UNIT=1442, GO 1442 CDRDP RTN
       AIF ('&UNIT' EQ '1419').CHKRDR   IF UNIT=1419, GO CHECK READER
       AIF ('&UNIT' EQ '1275').CHKRDR   IF UNIT=1275, GO CHECK READER
       AIF ('&UNIT' EQ '2501').CR2501   IF UNIT=2501, GO 2501 CD RD RTN
       AIF ('&UNIT' EQ '2520').CRP2520  IF UNIT=2520, GO 2520 CDRDP RTN
       AIF ('&UNIT' EQ '2540R').CR2540  IF UNIT=2540R, GO 2540 RDR RTN
       AIF ('&UNIT' EQ '2540P').CP2540  IF UNIT=2540P, GO 2540 PNH RTN
       AIF ('&UNIT' EQ '3505').CR3505   IF UNIT=3505, GO 3505 RDR RTN
       AIF ('&UNIT' EQ '3525').CP3525   IF UNIT=3525, GO 3525 PCH RTN
       AIF ('&UNIT' EQ '2671').RDR2671  IF UNIT=2671, GO 2671 PAPTP RTN
       AIF ('&UNIT' EQ '1030').TP1030   IF UNIT=1030 , GO 1030-SYS RTN
       AIF ('&UNIT' EQ '1050').TP1050   IF UNIT=1050 , GO 1050-SYS RTN
       AIF ('&UNIT' EQ '1050X').TP1050X IF UNIT=1050X, GO 1050X TP/RTN
       AIF ('&UNIT' EQ '1060').TP1060   IF UNIT=1060 , GO 1060-SYS RTN
       AIF ('&UNIT' EQ '2260').TP2260   IF UNIT=2260 , GO 2260-T/P RTN
 AIF ('&UNIT' EQ '2265').TP2265   IF UNIT=2265 , GO 2265-T/P RTN
 AIF ('&UNIT' EQ '7770').TP7770   IF UNIT=7770 , GO 7770-T/P RTN
       AIF ('&UNIT' EQ '115A').TP115A   IF UNIT=115A , GO 115A-T/P RTN
       AIF ('&UNIT' EQ '2740').TP2740   IF UNIT=2740 , GO 2740-T/P RTN
       AIF ('&UNIT' EQ '2740C').TP2740C IF UNIT=2740C, GO 2740C TP/RTN
       AIF ('&UNIT' EQ '2740X').TP2740X IF UNIT=2740X, GO 2740X TP/RTN
       AIF ('&UNIT' EQ '2741P').TP2741P  IF UNIT=2741P,GO 2741P-T/P RTN
       AIF ('&UNIT' EQ '2741C').TP2741C  IF UNIT=2741C,GO 2741C-T/P RTN
       AIF ('&UNIT' EQ '2955').TP2955 IF UNIT=2955, GO 2955 T/P RTN
   AIF  ('&UNIT' EQ '83B3').TP83B3
  AIF  ('&UNIT' EQ 'TWX').TPTWX
       AIF ('&UNIT' EQ 'BSC1').TPBSC1   IF UNIT=BSC1, GO BSC1-T/P RTN
       AIF ('&UNIT' EQ 'BSC2').TPBSC2   IF UNIT=BSC2, GO BSC3-T/P RTN
       AIF ('&UNIT' EQ 'BSC3').TPBSC3   IF UNIT=BSC3, GO BSC3-T/P RTN
       AIF ('&UNIT' EQ 'S360').TPS360   IF UNIT=S360, GO S360-T/P RTN
       AIF ('&UNIT' EQ '2780').TP2780   IF UNIT=2780,GO 2780-T/P RTN
       AIF ('&UNIT' EQ '1130').TP1130   IF UNIT=1130, GO 1130-T/P RTN
       AIF ('&UNIT' EQ '2020').TP2020   IF UNIT=2020, GO 2020-T/P RTN
       AIF ('&UNIT' EQ '2245').PRT2245  IF UNIT=2245, GO TO 2245 RTN
         AIF ('&UNIT' EQ 'WTTA').TPWTTA
         AIF   ('&UNIT' EQ '3705').TP3705
         AIF   ('&UNIT' EQ '3704').TP3705  SAME AS 3705         SA67531
         AIF  ('&UNIT' EQ 'DUMMY').DD   IF DUMMY DEV SPEC, BR DUMMY RTN
.******************************************************************UNC8
         AIF   (K'&UNIT LT 5).IUN99    GREATER THAN 5 CHAR?       *UNC8
         AIF   ('&UNIT'(1,5) EQ 'HASP-').IUN01  AGO IF HASP DEV   *UNC8
.IUN99   ANOP                                                     *UNC8
.******************************************************************UNC8
    MNOTE 5,'* * * IEIIOD101 &ID-UNIT VALUE &UNIT INVALID'
         AGO   .BADUNIT                 INVALID UNIT SPCFD-GO ERROR RTN
.******************************************************************UNC8
.IUN01   ANOP                     **** HASP PSUDO DEVICES ***     *UNC8
&UNPSUDO(&I) SETB 1               INDICATE PSUDO DEVICE.          *UNC8
         AIF   (K'&UNIT NE 9).IUN10    LOOK FOR 10 BYTE TYPES.    *UNC8
&OA      SETC  '&UNIT'(6,4)                                       *UNC8
         AIF   ('&OA' NE '1442').IUN02      NOT 1442              *UNC8
&SGDEVTP(&I) SETA 3               SET LOW BYTE DEV TYPE           *UNC8
         MNOTE *,'      HASP 1442 PUNCH'                          *UNC8
         AGO   .IUN90                                             *UNC8
.IUN02   AIF   ('&OA' NE '2520').IUN03                            *UNC8
&SGDEVTP(&I) SETA 5                                               *UNC8
         MNOTE *,'      HASP 2520 PUNCH'                          *UNC8
         AGO   .IUN90                                             *UNC8
.IUN03   AIF   ('&OA' NE '1403').IUN04                            *UNC8
&SGDEVTP(&I) SETA 8                                               *UNC8
         MNOTE *,'      HASP 1403 PRINTER'                        *UNC8
         AGO   .IUN90                                             *UNC8
.IUN04   AIF   ('&OA' NE '1443').IUN99                            *UNC8
&SGDEVTP(&I) SETA 10                                              *UNC8
         MNOTE *,'      HASP 1443 PRINTER'                        *UNC8
         AGO   .IUN90                                             *UNC8
.IUN10   AIF   (K'&UNIT NE 10).IUN99   INVALID DEV TYPE.          *UNC8
&OA      SETC  '&UNIT'(6,5)                                       *UNC8
         AIF   ('&OA' NE '2540R').IUN11                           *UNC8
&SGDEVTP(&I) SETA 1                                               *UNC8
         MNOTE *,'      HASP 2540 READER '                        *UNC8
         AGO   .IUN90                                             *UNC8
.IUN11   AIF   ('&OA' NE '2540P').IUN99                           *UNC8
&SGDEVTP(&I) SETA 2                                               *UNC8
         MNOTE *,'      HASP 2540 PUNCH  '                        *UNC8
.IUN90   ANOP                                                     *UNC8
&SGETABA(&I) SETA &SGDEVTP(&I)   SET DEV TYP LOW BYTE.            *UNC8
&SGDEVTP(&I) SETA X'500008'           SET DEV TYP HIGH BYTES.     *UNC8
&SGDEVB(1) SETB 1  SET FOR DEV TAB INSP                           *UNC8
         AGO   .DD     HANDLE SAME AS DUMMY DEVICE.               *UNC8
.******************************************************************UNC8
.T2404    ANOP                          RDWT SW SET AUTOMAT'LY IF 2404
&SGDF03B(&I)  SETB  1                   RDWT STD ON 2404-SW REQD BY IOS
&ML      SETA  1                        1 AND ONLY 1 OPTCHAN REQ'D/2404
         AGO   .F6                      BYPASS RTN TO MAKE 3=MAX OPTCHN
.T2400   ANOP                           SET ONE GLOBAL TYP SW FOR 2400
&ML      SETA  3                        2400 W/NO READWRT,MAX OPTCHAN=3
.F6 MNOTE *,'     &UNIT MAGNETIC TAPE DRIVE '
&SGDU01B(&I)   SETB 1                   GLOBAL UNIT SWITCH 1 FOR 2400TP
&SGDF04B(&I) SETB ('&UNIT' EQ '2415' AND &SGUNF4B(&SGCNTRA(2)))
&SGDT01B(&I)   SETB 1                   GLOBAL TYPE SW 1 FOR TAPE
&SGDCLSB(1)  SETB  1                    A SEQUENTIAL CLASS DEV WAS SPEC
&SGDCLSB(2)  SETB  1                    A MAGNETIC TAPE DEV WAS SPECD
&SGDCLSB(3)  SETB  1                    A 2400 TAPE DRIVE WAS SPECD
 AIF ('&UNIT' EQ '2420').T2420
         AIF (NOT &LOC).AB              BR ERROR RTN IF MOD VALUE OMITD
 AIF ( '&MODEL' EQ '1' OR '&MODEL' EQ '2' OR '&MODEL' EQ '3').AC MOD123
 AIF (('&MODEL' EQ '4' OR '&MODEL' EQ '5' OR '&MODEL' EQ '6' OR '&MODEL*
               ' EQ '8') AND ('&UNIT' NE '2404')).AC MODEL 4,5,6, OR 8 *
               EXCEPT FOR 2404.
    MNOTE 5,'* * * IEIIOD103 &ID-MODEL VALUE &MODEL INVALID'
&SGQUITB SETB  1
         AGO   .TFEATRE
.T3410   ANOP
    MNOTE *,'      3410 MAGNETIC TAPE DRIVE '
&SGDT01B(&I)   SETB 1                    GLOBAL TYPE SWITCH FOR TAPE
&SGDU03B(&I)   SETB 1                   A 3400 TAPE DRIVE SPECIFIED
&SG3410B(&I)   SETB 1                   A 3410 TAPE DRIVE SPECIFIED
&SGDCLSB(77)   SETB 1                    A 3410 TAPE DRIVE SPECD
&SGDCLSB(1)    SETB 1                    A SEQUENTIAL CLASS DEV SPECD
&SGDCLSB(2)    SETB 1                    A MAGNETIC TAPE DRIVE SPECD
         AIF   (T'&MODEL EQ 'O').AB
         AIF   ('&MODEL' EQ '1' OR '&MODEL' EQ '2' OR '&MODEL' EQ '3').*
               AC
    MNOTE 5,'* * * IEIIOD103 &ID-MODEL VALUE &MODEL INVALID'
&SGQUITB SETB  1
         AGO   .TFEATRE
.T3420   ANOP
&ML      SETA  3
    MNOTE *,'     3420 MAGNETIC TAPE DRIVE'
&SGDU03B(&I)   SETB 1                   A 3400 TAPE DRIVE SPECIFIED
&SGDT01B(&I)   SETB 1                   GLOBAL TYPE SWITCH FOR TAPE
&SGDCLSB(73)   SETB 1                   A 3420 TAPE DRIVE SPECD
&SGDCLSB(1)    SETB 1                   A SEQUENTIAL CLASS DEV SPECD
&SGDCLSB(2)    SETB 1                   A MAGNETIC TAPE DRIVE SPECD
         AIF   (T'&MODEL EQ 'O').AB
         AIF   ('&MODEL' EQ '3' OR '&MODEL' EQ '5' OR '&MODEL' EQ '7' O*
               R '&MODEL' EQ '4' OR '&MODEL' EQ '6' OR '&MODEL' EQ '8')*
               .AC                                               S99223
    MNOTE 5,'* * * IEIIOD103 &ID-MODEL VALUE &MODEL INVALID'
&SGQUITB SETB  1
         AGO   .TFEATRE
.AC MNOTE *,'     MODEL &MODEL'
&SGDM01B(&I)  SETB (&MODEL EQ 1)   GLOBAL MODEL SWITCH 1
&SGDM02B(&I)  SETB (&MODEL EQ 2)   GLOBAL MODEL SWITCH 2
&SGDM03B(&I)  SETB (&MODEL EQ 3)   GLOBAL MODEL SWITCH 3
&SGDM04B(&I)  SETB (&MODEL EQ 4)   GLOBAL MODEL SWITCH 4
&SGDM05B(&I)  SETB (&MODEL EQ 5)   GLOBAL MODEL SWITCH 5
&SGDM06B(&I)  SETB (&MODEL EQ 6)   GLOBAL MODEL SWITCH 6
&SGDM07B(&I)  SETB (&MODEL EQ 7)   GLOBAL MODEL SWITCH 7
&SGDM08B(&I)  SETB (&MODEL EQ 8)   GLOBAL MODEL SWITCH 8
         AIF   (('&UNIT' EQ '3420') AND ('&MODEL' EQ '4' OR '&MODEL' EQ*
               '6' OR '&MODEL' EQ '8')).ACACA                    S99223
         AGO   .TFEATRE                                          S99223
.ACACA   ANOP                                                    S99223
&SGDF05B(&I)   SETB 1                                            S99223
         AGO   .TFEATRE                                          S99223
.AB MNOTE 5,'* * * IEIIOD104 &ID-MODEL VALUE NOT SPECIFIED'
&SGQUITB SETB  1
.TFEATRE  AIF  (T'&FEATURE EQ 'O').HEDTST                       OS74355
    MNOTE *,'     FEATURE(S) '
&A       SETA  1
.LOOP1   AIF   ('&FEATURE(&A)' EQ '7-TRACK').F1 WAS 7-TRACK HD SPECD
         AIF   ('&FEATURE(&A)' EQ '9-TRACK').F2 WAS 9-TRACK HD SPECD
 AIF ('&FEATURE(&A)' EQ 'READWRITE' AND('&UNIT' EQ '2401' OR '&UNIT' EQX
                '2402')).F3             RDWT VALID OPTL FEAT ON 2401/02
         AIF   ('&FEATURE(&A)' EQ 'DUALDENS').F4  WAS DUALDENS SPECD
         AIF   ('&FEATURE(&A)' EQ 'SHARABLE').F5A WAS SHAREABLE SPECD
         AIF   ('&FEATURE(&A)' EQ 'MDECOMPAT').F7 WAS MDECOMPAT SPECD
         AIF   ('&FEATURE(&A)' EQ 'OPT1600').F8 WAS OPT1600 SPCD S99223
.F1A     ANOP
    MNOTE 5,'* * * IEIIOD105 &ID-FEATURE VALUE &FEATURE(&A) INVALID'
&SGQUITB SETB  1
         AGO   .MORE1
.F1 MNOTE *,'        7-TRACK HEAD '
&SGDF01B(&I) SETB 1           GLOBAL FEAT. SW 1 FOR 7-TRK HED  @SA78185
         AIF  (('&UNIT' EQ '3420') AND ('&MODEL' NE '3' AND '&MODEL' NE*
               '5' AND '&MODEL' NE '7')).F1A  MODELS 3,5,7 OK FOR 3420
.*         NEXT TWO LINES ADDED FOR OS78185                    @SA78185
         AIF  (('&UNIT' EQ '2401') AND ('&MODEL' NE '1' AND '&MODEL' NE*
               '2' AND '&MODEL' NE '3' AND '&MODEL' NE '8')).F1A
         AIF   (&SGDF02B(&I)).AD        7-TRK AND 9-TRK MUTUALLY EXCLSV
         AGO   .MORE1
.F2 MNOTE *,'        9-TRACK HEAD '
&SGDF02B(&I) SETB 1                     GLOBAL FEAT. SW 2 FOR 9-TRK HED
         AIF   ('&MODEL' EQ '8' AND '&UNIT' NE '3420').F2A       S99223
         AIF   (&SGDF01B(&I)).AD        7-TRK & 9-TRK MUTUALLY EXCLUSVE
         AGO   .MORE1
.AD MNOTE 5,'* * * IEIIOD115 &ID-7-TRACK/9-TRACK MUTUALLY EXCLUSIVE'
&SGQUITB  SETB  1
   AGO   .MORE1
.F2A MNOTE 5,'* * * IEIOD105 2401 MODEL 8 EXCLUSIVELY 7-TRACK'
&SGQUITB SETB  1
         AGO   .MORE1
.F3      ANOP
    MNOTE *,'        SIMULATANEOUS READ WHILE WRITE '
&SGDF03B(&I)   SETB 1                   GLOBAL FEATURE SWITCH 3
&ML      SETA  1                        2401,-02 W/RDWT,ONLY 1 OPCH REQ
         AGO   .MORE1
.F4 AIF ((('&UNIT' EQ '2401' OR '&UNIT' EQ '2402' OR '&UNIT' EQ '2403')*
               AND('&MODEL' EQ '4' OR '&MODEL' EQ '5' OR '&MODEL' EQ '6*
               '))).BI DUALDENS    ONLY ON 2401-3 MOD 4,5 OR 6
         AIF   ('&UNIT' EQ '3410').BI   DUALDENS VALID FOR 3410
         AIF   (('&UNIT' EQ '3420') AND ('&MODEL' EQ '3' OR '&MODEL' EQ*
               '5' OR '&MODEL' EQ '7')).BI  3420 MODEL 3,5 OR 7  S99223
    MNOTE 5,'* * * IEIIOD110 &ID-FEATURE DUALDENS INVALID  FOR &UNIT   *
                                         MODEL &MODEL'
&SGQUITB SETB  1
         AGO   .MORE1
.BI MNOTE *,'       DUAL DENSITY FEATURE'
&SGDF04B(&I)   SETB 1                        DUALDENS FEATURE SW
         AIF   (&SGDF06B(&I)).F8A     OPT1600 FEATURE SPECIFIED? S99223
         AGO   .MORE1
.F5A     AIF   ('&UNIT' EQ '3420').F5B
    MNOTE 5,'* * * IEIIOD112 &ID-FEATURE SHARABLE INVALID FOR &UNIT'
&SGQUITB SETB  1
         AGO   .MORE1
.F5B     ANOP
    MNOTE *,'       DEVICE SHARABILITY FEATURE'
&SGDF09B(&I) SETB  1
         AGO   .MORE1
.F7      AIF   ('&UNIT' EQ '3420').F1A  MODE COMPAT. INVALID FOR 3420
         AIF   ('&UNIT' EQ '3410').F1A  MODE COMPAT. INVALID FOR 3410
         AIF   ('&MODEL' EQ '4' OR '&MODEL' EQ '5' OR '&MODEL' EQ '6'  *
               OR '&UNIT' EQ '2415').MM
    MNOTE *,'        MODE COMPATIBILITY FEATURE'
&SGDF05B(&I)   SETB 1
         AGO   .MORE1
.F8      AIF   ('&UNIT' NE '3420').F1A   ONLY 3420 VALID         S99223
         AIF   (('&UNIT' EQ '3420') AND ('&MODEL' NE '4' AND '&MODEL' N*
               E '6' AND '&MODEL' NE '8')).F1A MODELS 4,6,8 OK FOR 3420
      MNOTE *,'      OPT1600 SPECIFIED       '                   S99223
&SGDF06B(&I)   SETB 1                                            S99223
         AIF   (&SGDF04B(&I)).F8A   DUALDENS FEATURE SPECIFIED?  S99223
         AGO   .MORE1
.F8A     ANOP                                                    S99223
  MNOTE 5,'* * * IEIIOD114 &ID DUALDENS AND OPT1600 MUTUALLY EXCLUSIVE'
&SGQUITB SETB 1
         AGO   .MORE1
.MM MNOTE 5,'* * * IEIIOD111 &ID-FEATURE MDECOMPAT INVALID FOR &UNIT   X
                                         MODEL &MODEL'
&SGQUITB SETB 1
         AGO   .MORE1
.MORE1 AIF (N'&FEATURE EQ &A).HEDTST   DONE WITH FEATURES YET   OS74355
&A       SETA  &A+1
         AGO   .LOOP1                   GO BACK AND CHECK NEXT FEATURE
.HEDTST  AIF   ('&UNIT' NE '3410' AND '&UNIT' NE '3420').HEDTST2 S99223
         AIF   ('&MODEL' EQ '4' OR '&MODEL' EQ '6' OR '&MODEL' EQ '8').*
               HEADDEN                                           S99223
         AIF   (&SGDF01B(&I) OR &SGDF04B(&I)).TRKTST  7-TRK OR DUALDENS
&DENS    SETC  '1600'                                            S99223
.DF MNOTE *,'    &DENS BPI DEFAULTED '                           S99223
&SGDF02B(&I)   SETB 1          GLOBAL FEAT. SW. 2 FOR 9-TRK HEAD S99223
         AGO   .HEDTST2                                          S99223
.HEADDEN AIF   (&SGDF01B(&I) OR &SGDF04B(&I) OR &SGDF06B(&I)).TRKTST
&DENS    SETC  '6250'                                            S99223
         AGO   .DF
.HEDTST2 AIF   ('&UNIT' EQ '3410' OR '&UNIT' EQ '3420').TRKTST   S99223
         AIF   (&SGDF01B(&I) OR &SGDF02B(&I)).TRKTST  7-TRK OR 9-TRK
    MNOTE 5,'* * * IEIIOD107 &ID-7-TRACK OR 9-TRACK FEATURE REQUIRED'
&SGQUITB SETB  1                        USER MUST SPECIFY 7/9-TRK HEAD
.TRKTST  AIF   (NOT(&SGDF01B(&I) AND &SGDF04B(&I))).TRKTSTA      S99223
    MNOTE 5,'* * * IEIIOD150 &ID-7-TRACK/DUALDENS MUTUALLY EXCLUSIVE   *
               FOR THE &UNIT TAPE DRIVE'
&SGQUITB SETB  1
         AGO   .APX                                              S21167
.TRKTSTA AIF   (NOT(&SGDF01B(&I) AND &SGDF06B(&I))).APX   S99223 S21167
    MNOTE 5,'* * * IEIIOD151 &ID-7-TRACK/OPT1600 MUTUALLY EXCLUSIVE    *
               FOR THE &UNIT TAPE DRIVE'                         S99223
&SGQUITB SETB  1                                                 S99223
        AGO   .APX                                        S99223 S21167
.T2420   ANOP
&SGDM04B(&I) SETB 1                    MODEL 4 SWITCH
&SGDF02B(&I) SETB 1                    9 TRACK
&SGDCLSB(57)  SETB  1
    AIF (&SGUNT1B(&Z) AND &SGUNU6B(&Z) AND &SGUNM2B(&Z)).APX     S21167
    MNOTE 5,'* * * IEIIOD108 &ID-UNIT NEEDS 2803 MODEL 2 CONTROL UNIT'
&SGQUITB SETB 1
         AGO   .APX                                              S21167
.T2495 MNOTE *,'     2495 TAPE CARTRIDGE READER'
&SGDT07B(&I)   SETB  1                 DEVICE TYPE SWITCH
&SGDU07B(&I)   SETB  1                 UNIT TYPE SWITCH
&SGDCLSB(1)    SETB  1                 SEQUENTIAL CLASS SWITCH
&SGDCLSB(11)   SETB  1                 UNIT-RECORD CLASS SWITCH
&SGDCLSB(61)   SETB  1                 2495 CLASS SWITCH
         AGO   .CHECKX
.T7340   ANOP
&SGDT01B(&I)   SETB 1                   GLOBAL TYPE SWITCH 1 = TAPE
&SGDU06B(&I)   SETB 1                   GLOBAL UNIT SWITCH 6
&SGDCLSB(1)    SETB 1                   A SEQUENTIAL CLASS DEV WAS SPEC
&SGDCLSB(2)    SETB  1                  A MAGNETIC TAPE DEV WAS SPECD
&SGDCLSB(4)    SETB  1                  A 7340 HYPERTAPE DRIVE WAS SPEC
    MNOTE *,'     7340 HYPERTYPE DRIVE '
&ML      SETA  1                        7340 HAS MAX OF 1 OPTCHAN
         AIF   (NOT &LOC).AG            BR ERROR RTN IF MOD VALUE OMITD
         AIF   ('&MODEL' NE '3').AH     MODEL VALUE MUST BE 3 FOR 7340
&SGDM03B(&I)   SETB 1                   GLOBAL MODEL SWITCH 3
    MNOTE *,'     MODEL 3 '
         AGO   .TFEAT5
.AH MNOTE 5,'* * * IEIIOD103 &ID-MODEL VALUE &MODEL INVALID'
&SGQUITB SETB  1
         AGO   .TFEAT5
.AG MNOTE 5,'* * * IEIIOD104 &ID-MODEL VALUE NOT SPECIFIED'
&SGQUITB SETB  1
.TFEAT5  AIF   (T'&FEATURE EQ 'O').CHECKX BRANCH IF NO FEATURES SPECD
    MNOTE *,'     FEATURE  '
&A       SETA  1
.LOOP2   AIF   ('&FEATURE(&A)' EQ 'AUTOCART').F5
    MNOTE 5,'* * * IEIIOD105 &ID-FEATURE VALUE &FEATURE(&A) INVALID'
&SGQUITB SETB  1
         AGO   .MORE2
.F5 MNOTE *,'        AUTOMATIC CARTRIDGE LOADER '
&SGDF01B(&I)   SETB 1                   GLOBAL FEAT. SW 1
.MORE2   AIF   (&A EQ N'&FEATURE).CHECKX  BRANCH IF NO MORE FEATURES.
&A       SETA  &A+1
         AGO   .LOOP2
.OPTCHAR ANOP                          O P T L  C H A R  R D R  R T N
   MNOTE *,'     &UNIT OPTICAL CHARACTER READER'
&SGDT02B(&I) SETB 1                    DEVICE TYPE SWITCH FOR OP RDR
   AIF  ('&UNIT' NE '1285').XOPT
&SGDU01B(&I)  SETB  1
&SGDCLSB(13) SETB 1
   AGO  .ZOPT
.XOPT   AIF  ('&UNIT' NE '1287').YOPT
&SGDU02B(&I)  SETB  1
&SGDCLSB(58)  SETB  1
   AGO  .ZOPT
.YOPT  ANOP
&SGDU03B(&I)  SETB  1
&SGDCLSB(59)  SETB  1
.ZOPT   ANOP
&SGDCLSB(1)  SETB  1
&SGDCLSB(11)  SETB  1
&SGDCLSB(12)  SETB  1
         AGO   .CHECKX
.D2301   ANOP                           D I R E C T  A C C E S S  R T N
&SGDU01B(&I)   SETB 1                   GLOBAL UNIT SWITCH 1
&SGDCLSB(27) SETB  1                    A DRUM STORAGE DEV WAS SPECD.
&SGDCLSB(28) SETB  1                    A 2301 DRUM WAS SPECD.
&SGDASDA SETA &SGDASDA+1                COUNT D.A. DEVICES
    MNOTE *,'     2301 DRUM STORAGE '
         AGO   .PRINTD                  GO TO COMMON FEATURE RTN
.D2302   ANOP
&SGDU02B(&I)   SETB 1                   GLOBAL UNIT SWITCH 2
&SGDCLSB(29) SETB  1                    A DISK STORAGE DEV WAS SPECD.
&SGDCLSB(30) SETB  1                    A 2302 DISK WAS SPECD.
&SGDASDA SETA &SGDASDA+1                COUNT D.A. DEVICES
    MNOTE *,'     2302 DISK STORAGE '
         AIF   (NOT &LOC).AJ            BR ERROR RTN IF MOD VALUE OMITD
 AIF ('&MODEL' NE '3' AND '&MODEL' NE '4').AK
&SGDM01B(&I)  SETB  ('&MODEL' EQ '3')
&SGDM02B(&I) SETB ('&MODEL' EQ '4')
    MNOTE *,'     MODEL &MODEL '
         AGO   .DFEAT
.D2303   ANOP
&SGDU05B(&I)   SETB   1                 SET SWITCH 5
&SGDCLSB(27)   SETB    1                A DRUM STORAGE DEV SPEC
&SGDASDA SETA &SGDASDA+1                COUNT D.A. DEVICES
&SGDCLSB(42)  SETB  1   2303 DRUM STORAGE DEVICE SPECIFIED
    MNOTE *,'     2303 DRUM STORAGE '
         AGO   .PRINTD
.AK MNOTE 5,'* * * IEIIOD103 &ID-MODEL VALUE &MODEL INVALID'
&SGQUITB SETB  1
         AGO   .DFEAT
.AJ MNOTE 5,'* * * IEIIOD104 &ID-MODEL VALUE NOT SPECIFIED'
&SGQUITB SETB  1
         AGO   .DFEAT
.D2305 ANOP
&SGDCLSB(27) SETB 1
&SGDCLSB(40) SETB 1
&SGDCLSB(70) SETB 1
&SGDT03B(&I) SETB 1
&SGDU08B(&I) SETB 1
&SGDASDA SETA &SGDASDA+1
&SG2305A SETA &SG2305A+1
&ML SETA 1
 MNOTE *,'     2305 FIXED HEAD STORAGE'
 AIF (NOT &LOC).D2305E1
         AIF   ('&MODEL' NE '1').M22305
&SGDM01B(&I) SETB 1
&SGDCLSB(75) SETB 1
         AGO   .MDLMSG
.M22305  AIF   ('&MODEL' NE '2').D2305E2
&SGDM02B(&I) SETB 1
&SGDCLSB(76) SETB 1
.MDLMSG MNOTE *,'     MODEL &MODEL'
.D2305FE ANOP
&A SETA 1
 AIF (T'&FEATURE EQ 'O').CHECKX
 MNOTE *,'     FEATURES'
.D2305A AIF ('&FEATURE(&A)' EQ '2-CHANSW').D2305B
 AIF ('&FEATURE(&A)' EQ 'SHARED').D2305C
 MNOTE 5,'* * * IEIIOD147 &ID-FEATURE VALUE &FEATURE(&A) INVALID'
&SGQUITB SETB 1
 AGO .D2305D
.D2305B MNOTE *,'     TWO CHANNEL SWITCH'
&SGDF01B(&I) SETB 1
 AGO .D2305D
.D2305C MNOTE *,'     SHARED DASD'
&SGDF02B(&I) SETB 1
&SGDCLSB(54)  SETB  1         SHARED DASD CLASS SWITCH
.D2305D AIF (&A EQ N'&FEATURE).CHECKX
&A SETA &A+1
 AGO .D2305A
.D2305E1 MNOTE 5,'* * * IEIIOD148 &ID-MODEL VALUE REQUIRED'
&SGQUITB SETB 1
 AGO .D2305FE
.D2305E2 MNOTE 5,'* * * IEIIOD149 &ID-MODEL VALUE &MODEL INVALID'
&SGQUITB SETB 1
 AGO .D2305FE
.D2311   ANOP
&SGDU03B(&I)   SETB 1                   GLOBAL UNIT SWITCH 3
&SGDCLSB(29) SETB  1                    A DISK STORAGE DEV WAS SPECD.
&SGDCLSB(31) SETB  1                    A 2311 DISK WAS SPECD.
&SGDASDA SETA &SGDASDA+1                COUNT D.A. DEVICES
&SG2311A SETA &SG2311A+1     COUNT THE 2311 DISK DRIVES
    MNOTE *,'     2311 DISK STORAGE '
.PRINTD  AGO   .DFEAT
.D2314   ANOP
&SGDU06B(&I)   SETB 1              GLOBAL UNIT SWITCH 6
&SGDCLSB(29)   SETB 1              A DISK STORAGE DEVICE WAS SPECD.
&SGDCLSB(41)   SETB 1              A 2314 WAS SPECIFIED
&SGDASDA SETA &SGDASDA+1                COUNT D.A. DEVICES
&SGDCLSB(40)  SETB  1      OVERFLOW CLASS SWITCH
    MNOTE *,'     2314 DISK STORAGE'
&ML      SETA  3
 AIF (T'&FEATURE EQ 'O').FRM2314
.L2314  AIF (&Q EQ N'&FEATURE).FRM2314
&Q  SETA  &Q+1
  AIF  ('&FEATURE(&Q)' EQ '2-CHANSW').F2314
 AIF ('&FEATURE(&Q)' EQ 'SHARED').FE2314
 AIF ('&FEATURE(&Q)' EQ 'ALTCTRL').AL2314
    MNOTE 5,'* * * IEIIOD105 &ID-FEATURE VALUE &FEATURE(&Q) INVALID'
&SGQUITB  SETB  1
  AGO  .L2314
.F2314  ANOP
&SGDF01B(&I)  SETB  1
&SGDCLSB(56)  SETB  1
   MNOTE *,'       2-CHANSW FEATURE SPECIFIED'
  AGO  .L2314
.FE2314 MNOTE *,'     SHARED DASD'
&SGDF02B(&I) SETB 1      FIFTH GLOBAL FEATURE SWITCH
&SGDCLSB(54) SETB 1      SHARED DASD CLASS SWITCH
 AGO .L2314
.AL2314 MNOTE *,'     ALTERNATE CONTROL FEATURE'
&SGDF03B(&I) SETB 1                    ALTCTRL FOR THIS DEVICE
&SGMENTB(86) SETB 1                    ALTCTRL SPECIFIED DURING SYSGEN
 AGO .L2314
.D2321   ANOP
&SG2321A SETA  &SG2321A+9
&SGDU04B(&I)   SETB 1                   GLOBAL UNIT SWITCH 4
&SGDCLSB(32) SETB 1                     A 2321 DATA CELL DRIVE SPECD
&SGDASDA SETA &SGDASDA+1                COUNT D.A. DEVICES
    MNOTE *,'     2321 DATA CELL DRIVE '
         AGO   .DFEAT                   GO TO FEATURE RTN
.AM MNOTE 5,'* * * IEIIOD103 &ID-MODEL VALUE &MODEL INVALID'
&SGQUITB SETB  1
         AGO   .DFEAT
.AL MNOTE 5,'* * * IEIIOD104 &ID-MODEL VALUE NOT SPECIFIED'
&SGQUITB SETB  1                        MOD=INVLD/OMIT-TURN ON ERROR SW
.DFEAT   ANOP
&ML      SETA  1                        2301,02,11,&&2321,MAX OPTCHAN=1
.FRM2314 ANOP
&SGDT03B(&I)   SETB 1                   GLOBAL TYPE SWITCH 3
&SGDCLSB(26) SETB  1                    A RANDOM CLASS DEV WAS SPECD.
         AGO   .APX              NOP SEEKQUE RTN FOR 1ST DELIVRY S21167
         AIF (T'&SEEKQUE EQ 'O').Q1     IF NULL,ASSUME FIFO SEEK Q'ING
 AIF ('&SEEKQUE' NE 'FIFO' AND '&SEEKQUE' NE 'PRIORITY' AND '&SEEKQUE' X
               NE 'ORDERED').Q2         IF SPECD,BUT INVALID GO ERR RTN
&SGDSQ1B(&I) SETB ('&SEEKQUE' EQ 'PRIORITY') SW1 OFF=FIFO-SW1 ON=PR'RTY
&SGDSQ2B(&I) SETB ('&SEEKQUE' EQ 'ORDERED') SW2 ON=ORDERED QUEUEING
         AGO   .Q3                      GO PRT QUEUEING OPTION
.Q1      ANOP                           IF NO OPT,ASSUME FIFO-SW1=OFF
&F       SETC  'FIFO'                   PUT FIFO IN MSG IF DEFAULT FIFO
.Q3 MNOTE *,'     &F&SEEKQUE SEEK QUEUEING FOR &C '
         AGO  .NOFEAT                   GO TO FEAT TEST FOR D. A. DEV'S
.Q2 MNOTE 5,'* * * IEIIOD115 &ID-SEEKQUE VALUE &SEEKQUE INVALID'
&SGQUITB SETB  1
         AGO   .NOFEAT                  GO TO FEAT TEST FOR D. A. DEV'S