%--------------------%ISPF+Master Application Menu ---------------------
%Select Application ===>_OPT     +
%
%   F +PDF        - ISPF Program Development Facility       +Applid   -%
%   D +IDMF       - ISPF Dataset Management  Facility       +Userid   -
%   Q +QUEUE      -%QUEUE+command Interface                 +Time     -
%   I +INFO       - Information System(s) interface         +Terminal -
%   C +CP         -%TSO+command processor or%CLIST          +PF keys  -
%   S +SPSF       -%System Programmer+Support Facility      +Date     -
%   O +OPTIONS    - ISPF options, parms, defaults           +Julian   -
%   T +TUTORIAL   -%TUTORIAL+on ISPF use and operation
%   X +EXIT       -%TERMINATE+using list/log defaults
%
+Press%END KEY+to terminate ISPF+
%
)INIT
 .HELP    = TG
 &ZHTOP   = TG        /* TUTORIAL TABLE OF CONTENTS */
 &ZHINDEX = TG        /* TUTORIAL INDEX - 1ST PAGE */
 IF (&YSINDX  = ' ')
    &YSINDX = 'F'

)PROC
  &TEMPIND = TRUNC (&OPT,'.')
  IF (&TEMPIND ^= D,F,Q,I,C,S,O,T,X)
     &OPT = '&YSINDX..&OPT'
  IF (&TEMPIND = D,F,Q,I,C,S,O,T)
     &YSINDX = &TEMPIND
  &SEL = TRANS( TRUNC (&OPT,'.')
                D,'PGM(IDMMAIN) PARM(ISP@PRIM) NEWPOOL'
                F,'PANEL(ISP#PRIM) NEWPOOL'
                Q,'CMD(%C#QUEUE)'
                I,'PANEL(YSP#INFO) NEWPOOL'
                C,'PGM(ISPTSO)'
                S,'PANEL(YSP#SYST) NEWPOOL'
                O,'PANEL(ISPOPT)'
                T,'PGM(ISPTUTOR) PARM(T)'
                X,'EXIT'
              ' ',' '
                *,'?' )
)END
