)ATTR
  @ TYPE(INPUT) INTENS(NON) PAD(NULLS)
)BODY
%------------------------- DELETE VSAM OBJECT --------------------------
%CONFIRM REQUEST ===>_OPT     +
+
% D +DELETE - DELETE VSAM OBJECT
+ OBJ NAME %= &PDATASET                                                +
+   VOLUME %= &VOL     +
+
+  PASSWORD%===>@DPWD    +
+REMOVE ROW%===>_DSR+  (Y OR N) - YES OR NO
+     PURGE%===>_DSP+  (Y OR N) - IGNORE DATE PROTECTION
+     ERASE%===>_DSZ+  (Y OR N) - CLEAR TO BINARY ZEROS
+
+PRESS%ENTER KEY+TO DELETE OBJECT+
+PRESS%END KEY+TO CANCEL REQUEST+
+
)INIT
  &DPWD = ' '
  &OPT = ' '
  IF (&DSR = ' ')
     &DSR = 'Y'
  IF (&DSP = ' ')
     &DSP = 'Y'
  IF (&DSZ = ' ')
     &DSZ = 'N'
  &PDATASET = '''&DSNAME'''
  &BUFFCMD = ' '

)PROC
  VER (&OPT,NONBLANK)
  VER (&OPT,LIST,D)

  IF (&DPWD ^= ' ')
     &PDATASET = '&PDATASET/&DPWD'

  VER (&DSR,NONBLANK)
  VER (&DSR,LIST,Y,N)

  VER (&DSP,NONBLANK)
  VER (&DSP,LIST,Y,N)
  &DSPURGE = 'PURGE'
  IF (&DSP = 'N')
     &DSPURGE = 'NOPURGE'

  VER (&DSZ,NONBLANK)
  VER (&DSZ,LIST,Y,N)
  &DSERASE = 'NOERASE'
  IF (&DSZ = 'Y')
     &DSERASE = 'ERASE'

  &BUFFCMD = 'DELETE (&PDATASET) FILE(&LCC) &DSPURGE &DSERASE'
  &LCC = '&DSR'

)END
