%------------------ DELETE OR UNCATALOG NONVSAM OBJECT -----------------
%CONFIRM REQUEST ===>_OPT     +
+
% D +DELETE   - DELETE DATASET OR MEMBER OF PDS
% U +UNCATLOG - UNCATALOG DATASET
+
+    DSNAME%--->%&PDATASET
+    VOLUME%--->%&VOL     +
+REMOVE ROW%===>_DSR+  (Y OR N) - DATASET DELETE ONLY
+ERASE MEMB%===>_DSM+  (Y OR N) - MEMBER DELETE ONLY
+
+PRESS%ENTER KEY+TO DELETE/UNCATALOG OBJECT+
+PRESS%END KEY+TO CANCEL REQUEST+
+
)INIT
  &OPT = ' '
  &LCC = ' '
  IF (&DSR = ' ')
     &DSR = 'Y'
  IF (&DSM = ' ')
     &DSM = 'N'
  &PDATASET = '''&DSNAME'''
  IF (&MBR ^= ' ')
     &PDATASET = '''&DSNAME(&MBR)'''

)PROC
  VER (&PDATASET,DSNAME)
  VER (&OPT,NONBLANK)
  VER (&OPT,LIST,D,U)
  IF (&MBR ^= ' ')
     VER (&OPT,LIST,D,MSG=YDST035)

  IF (&OPT = 'D')
     IF (&MBR = ' ')
        VER (&DSR,NONBLANK)
        VER (&DSR,LIST,Y,N)
        VER (&DSM,NONBLANK)
        VER (&DSM,LIST,Y,N)
        &LCC = '&DSR'
     IF (&MBR ^= ' ')
        &LCC = '&DSM'

)END
