         MACRO
&NAME    ENDIF &COMMENT,&C=
.*#-------------------------------------------------------------------*
.*# ENDIF: MACRO  CLOSE CURRENT IF LEVEL                              *
.*#-------------------------------------------------------------------*
.*#                                                                   *
.*# FUNCTION: THE ACTUAL 'IF' LEVEL WILL BE CLOSED.                   *
.*#                                                                   *
.*# CODING:   ENDIF      (NO OPERANDS)                                *
.*#                                                                   *
.*#-------------------------------------------------------------------*
         COPY  IFGLO
         LCLC  &OPND
.*
&MACNA   SETC  'ENDIF'
.*
.*--------------------------------------------------------------------*
.*       IF WITHOUT ELSE: GENERATE ELSE LABEL                         *
.*--------------------------------------------------------23-09-80-RS-*
         AIF   (&IFLEVEL GT 0).OBR20
    MNOTE 12,' ??????  ADIOS LOGIC !!!,     EMERGENCY MESSAGE FROM STRU*
               CTURED PROGRAMMING SYSTEM.'
         MEXIT
.*
.OBR20   ANOP
         AIF ('&SYSPARM' EQ '').OBR00
         AIF ('&SYSPARM'(1,2) EQ 'NO').OBR00
         AGO     .OBR00
&NAME    SVDOC   COM=END,C=&C
.OBR00   ANOP
         AIF   ('&IFFALSE(&IFLEVEL)' EQ '').NOELSE
&OPND    SETC  '&IFPRAEF&IFFALSE(&IFLEVEL)'
&OPND    DS    0H                          TARGET FOR ELSE BRANCH
.NOELSE  ANOP
.*--------------------------------------------------------------------*
.*       GENERATE ENDIF LABEL IF NECESSARY                            *
.*--------------------------------------------------------23-09-80-RS-*
         AIF   ('&IFENDLB(&IFLEVEL)' EQ '').NOENDIF
&OPND    SETC  '&IFPRAEF&IFENDLB(&IFLEVEL)'
&OPND    DS    0H                          TARGET FOR ENDIF BRANCH
.NOENDIF ANOP
.*--------------------------------------------------------------------*
.*       RESET FUNCTIONS OF THIS IF-LEVEL                             *
.*--------------------------------------------------------23-09-80-RS-*
&IFTRUE  SETC  ''
&IFFALSE(&IFLEVEL) SETC ''
&IFENDLB(&IFLEVEL) SETC ''
&IFLEVEL SETA &IFLEVEL-1
         MEXIT
         MEND
