         MACRO
&NAME    LARL  &R1,&I32
.*
.*       GENERATE OPCODE IN IFOX00
.*
&NAME    C0OP  0,&R1,(&I32-*+2)/2
         MEND
