         MACRO
&NAME    LHRL  &R1,&REL
.*
.*       GENERATE OPCODE IN IFOX00
.*
&NAME    C4OP  5,&R1,(&REL-*+2)/2
         MEND
