         MACRO
&NAME    LRL   &R1,&REL
.*
.*       GENERATE OPCODE IN IFOX00
.*
&NAME    C4OP  D,&R1,(&REL-*+2)/2
         MEND
