         MACRO
&NAME    STHRL &R1,&REL
.*
.*       GENERATE OPCODE IN IFOX00
.*
&NAME    C4OP  7,&R1,(&REL-*+2)/2
         MEND
