         MACRO
&NAME    STRL  &R1,&REL
.*
.*       GENERATE OPCODE IN IFOX00
.*
&NAME    C4OP  F,&R1,(&REL-*+2)/2
         MEND
