         MACRO
&NAME    EXIT  &DO=,&C=
.*#-------------------------------------------------------------------*
.*#   EXIT     MACRO FOR STRUCTURED PROGRAMMING                       *
.*#-------------------------------------------------------------------*
.*#
.*#   FUNCTION:    UNCONDITIONAL EXIT OF ONE OR MORE DO GROUPS.
.*#
.*#   SYNTAX       EXIT      : EXITS CURRENT DO GROUP
.*#
.*#                EXIT  DO=DOGROUP
.*#
.*#                -   DOGROUP: AN ASSEMBLER LABEL OF A DO-GROUP
.*#                            EXITS THE DO GROUP WITH THIS LABEL
.*#                            EXAMPLE: EXIT DO=FIRST
.*#
.*#--------------------------------------------------------------------
         LCLA  &I              INDEX DONAME SCANNING
         LCLA  &N              INDEX PRINTING NAME
         LCLC  &OPND
         COPY  IFGLO
.*
&MACNA   SETC  'EXIT'
.*
         AIF   (&DOLEVEL GT 0).OBR20
    MNOTE 12,' ??????  ADIOS LOGIC !!!,     EMERGENCY MESSAGE FROM STRU*
               CTURED PROGRAMMING SYSTEM.'
         MEXIT
.OBR20   ANOP
.**&N       SETA  &DOLEVEL+&IFLEVEL           GENERATE LEVEL MESSAGE
         AIF ('&SYSPARM' EQ '').OBR00
         AIF ('&SYSPARM'(1,2) EQ 'NO').OBR00
         AGO     .OBR00
.**         MNOTE *,'&N CONT'                 GENERATE LEVEL MESSAGE
&NAME    SVDOC   COM=CONT,&DO,C=&C
.OBR00   ANOP
         AIF   ('&DO' EQ '').NONAME        NAME OF DO GROUP SPECIFIED
.*--------------------------------------------------------------------*
.*       LOOK UP NAME-TABLE FOR CURRENT NAME                          *
.*--------------------------------------------------------------------*
&I       SETA  1
.LOOP    ANOP
         AIF   (&I GT &DOLEVEL).FEHL19
         AIF   ('&DO' EQ '&DONAME(&I)').ENDLOOP  THE NAME IS IN TABLE
&I       SETA  &I+1                              NEXT ELEMENT
         AGO  .LOOP
.ENDLOOP ANOP
         AGO  .GENER
.*--------------------------------------------------------------------*
.*       EXIT CURRENT LOOP                                            *
.*--------------------------------------------------------------------*
.NONAME  ANOP
&I       SETA  &DOLEVEL
.GENER   ANOP
.*
.*--------------------------------------------------------------------*
.*  GENERATE CODE TO EXIT THE SPECIFIED LOOP                          *
.*--------------------------------------------------------------------*
&OPND    SETC  '&IFPRAEF&DOENDLB(&I)'
         B     &OPND                     LEAVE THE LOOP &DO
.*
         AGO   .MACEND
.*
         COPY IFERR
.*
.MACEND  ANOP
         MEXIT
         MEND
