         MACRO
&NAME    FILL  &AREA
&NAME    DC      CL(&AREA+L'&AREA-*)' '
         MEND
