         MACRO
&NAME    PANEL
************************************************************
*********  C L E M S O N   U N I V E R I S I T Y   *********
*                                                          *
*       THE PANEL MACRO ALLOWS THE SYMBOLIC PROGRAMMING    *
*       OF DISPLAY PANELS ON IBM 3270 TYPE TERMINALS       *
************************************************************
.*
.*   NOTE THAT THE REVERSE AND BLINK ATTRIBUTES ARE SET UP
.*   FOR USE ON BRAEGEN TERMINALS.
.*
.*   UPDATED  06/80 TO ALLOW DC'S IN PARM LIST      - RJB
.*
.*       LOCAL VARIABLE DECLARATIONS
.*
         LCLC  &C
         LCLC  &R,&TAG
         LCLA  &N
        LCLB  &B0,&B1,&B2,&B3,&B4,&B5,&B6,&B7
         AIF   ('&NAME' EQ '').NOEQU
&NAME    EQU   *
.NOEQU   ANOP
&N       SETA  1                        SYSLIST SUBSCRIPT
.*
.*       SCAN FOR WRITE COMMAND
.*
.SCAN    ANOP
         AIF   ('&SYSLIST(&N)' EQ '').EXIT
         AIF   ('&SYSLIST(&N)' EQ 'WRITE').WRITE
.*
.*       SCAN FOR BUFFER ORDERS
.*
         AIF   ('&SYSLIST(&N)' EQ 'SBA').SBA
         AIF   ('&SYSLIST(&N)' EQ 'SF').SF
         AIF   ('&SYSLIST(&N)' EQ 'ICA').ICA
         AIF   ('&SYSLIST(&N)' EQ 'IC').IC
         AIF   ('&SYSLIST(&N)' EQ 'CLEAR').CLEAR
         AIF   ('&SYSLIST(&N)' EQ 'RA').RA
         AIF   ('&SYSLIST(&N)' EQ 'EUA').EUA
         AIF   ('&SYSLIST(&N)' EQ 'PT').PT
         AIF   (K'&SYSLIST(&N) LT 1).MNOTE
&R       SETC  '&SYSLIST(&N)'(K'&SYSLIST(&N),1)
         AIF   ('&R' EQ '''').RDC           IS LAST CHARACTER A GLITCH?
         AIF   (K'&SYSLIST(&N) LT 4).MNOTE
&TAG     SETC  '&SYSLIST(&N)'(1,4)           IS IT A TAG?
         AIF   ('&TAG' EQ 'TAG(').TAG1      WELL IS IT?
.MNOTE   MNOTE 4,'PANEL01- INVALID ORDER ENCOUNTERED: &SYSLIST(&N)'
         MEXIT
.*
.*    GENERATE A TAG
.*
.TAG1    ANOP
&TAG     SETC  '&SYSLIST(&N)'(5,K'&SYSLIST(&N)-5)
&TAG     EQU   *                        ISSUE AN EQU FOR TAG
&N       SETA  &N+1
         AGO   .SCAN
.*
.*    LAST CHARACTER IN STRING IS A GLITCH
.*
.RDC     ANOP
         DC    &SYSLIST(&N)             ISSUE DC
&N       SETA  &N+1
         AGO   .SCAN
.*
.*       PROCESS WCC OPTIONS   (ESTABLISH DEFAULTS)
.*
.WRITE   ANOP
&B0      SETB  1
&B1      SETB  1
&B2      SETB  0
&B3      SETB  0
&B4      SETB  0
&B5      SETB  0
&B6      SETB  1
&B7      SETB  1
.WRT     ANOP
&N       SETA  &N+1
         AIF   ('&SYSLIST(&N)' EQ 'RESET').RESET
         AIF   ('&SYSLIST(&N)' EQ 'ALARM').ALARM
         AIF   ('&SYSLIST(&N)' EQ 'NOREST').NOREST
         AIF   ('&SYSLIST(&N)' EQ 'RESTORE').RESTORE
         AGO   .WCC
.*
.RESET   ANOP
&B7      SETB  1                        TURN ON RESET MDT BIT
         AGO   .WRT
.ALARM   ANOP
&B5      SETB  1                        TURN ON ALARM BIT
         AGO   .WRT
.NOREST  ANOP
&B6      SETB  0                        TURN OFF KEYBOARD RESTORE BIT
         AGO   .WRT
.RESTORE ANOP
&B6      SETB  1                        TURN ON KEYBOARD RESTORE BIT
         AGO   .WRT
.*
.*       ISSUE DC FOR PROPER WCC
.*
.WCC     DC    B'&B0&B1&B2&B3&B4&B5&B6&B7' WRITE CONTROL CHARACTER
         AIF   ('&SYSLIST(&N)' EQ 'FULLSCR').FULLSCR
         AIF   ('&SYSLIST(&N)' EQ 'FULLSCR2').FULLSC2
         AGO   .SCAN
.**
.*   SET UP FOR SPF-FULL SCREEN PANEL
.**
.FULLSCR $SBA  24,80      ** SET SPECIAL FLAG **
         $SBA  1,1         ** NOTE BUFFER ADDRESS DOESN'T MATTER **
&N       SETA  &N+1
         AGO   .SCAN
.*
.FULLSC2 $SBA  24,79                            ** SET SPECIAL FLAG **
         $SBA  &SYSLIST(&N+1),&SYSLIST(&N+2)
&N       SETA  &N+3                             POINT TO NEXT OPTION
         AGO   .SCAN
.*
.*       PROCESS BUFFER ORDERS
.*
.SBA     $SBA  &SYSLIST(&N+1),&SYSLIST(&N+2)
&N       SETA  &N+3
         AGO   .SCAN
.IC      DC    X'13'                    INSERT CURSOR
&N       SETA  &N+1
         AGO   .SCAN
.ICA     $SBA  &SYSLIST(&N+1),&SYSLIST(&N+2),13
&N       SETA  &N+3
         AGO   .SCAN
.CLEAR   ANOP
         $SBA  1,1
         $SBA  24,80,00,ORDER=3C        CLEAR SCREEN
         $SBA  1,1
&N       SETA  &N+1
         AGO   .SCAN
.RA      AIF   ('&SYSLIST(&N+3)'(1,2) EQ 'X''').HEX
         $SBA  &SYSLIST(&N+1),&SYSLIST(&N+2),,ORDER=3C
         DC    C'&SYSLIST(&N+3)'
&N       SETA  &N+4
         AGO   .SCAN
.HEX     ANOP
&C       SETC  '&SYSLIST(&N+3)'(3,2)
         $SBA  &SYSLIST(&N+1),&SYSLIST(&N+2),&C,ORDER=3C
&N       SETA  &N+4
         AGO   .SCAN
.EUA     $SBA  &SYSLIST(&N+1),&SYSLIST(&N+2),,ORDER=12
&N       SETA  &N+3
         AGO   .SCAN
.PT      ANOP
         DC    X'05'                    PROGRAM TAB
&N       SETA  &N+1
         AGO   .SCAN
.*
.*       PROCESS ATTRIBUTE BYTE OPTIONS
.*
.SF      ANOP
&B0      SETB  0
&B1      SETB  1
&B2      SETB  0
&B3      SETB  0
&B4      SETB  0
&B5      SETB  0
&B6      SETB  0
&B7      SETB  0
.*
.SFSCAN  ANOP
&N       SETA  &N+1
         AIF   ('&SYSLIST(&N)' EQ 'HIGH').HIGH
         AIF   ('&SYSLIST(&N)' EQ 'HI').HIGH
         AIF   ('&SYSLIST(&N)' EQ 'PROT').PROT
         AIF   ('&SYSLIST(&N)' EQ 'PR').PROT
         AIF   ('&SYSLIST(&N)' EQ 'BLINK').BLINK
         AIF   ('&SYSLIST(&N)' EQ 'B').BLINK
         AIF   ('&SYSLIST(&N)' EQ 'REVERSE').REV
         AIF   ('&SYSLIST(&N)' EQ 'R').REV
         AIF   ('&SYSLIST(&N)' EQ 'NOPRINT').NOPRT
         AIF   ('&SYSLIST(&N)' EQ 'NO').NOPRT
         AIF   ('&SYSLIST(&N)' EQ 'MDT').MDT
         AIF   ('&SYSLIST(&N)' EQ 'NUM').NUM
         AIF   ('&SYSLIST(&N)' EQ 'SKIP').SKIP
         AIF   ('&SYSLIST(&N)' EQ 'LOW').LOW
         AIF   ('&SYSLIST(&N)' EQ 'LO').LOW
         AIF   ('&SYSLIST(&N)' EQ 'UNPROT').UNP
         AIF   ('&SYSLIST(&N)' EQ 'UN').UNP
         AIF   ('&SYSLIST(&N)' EQ 'ALPHA').ALPHA
         AIF   ('&SYSLIST(&N)' EQ 'A').ALPHA
         AIF   (K'&SYSLIST(&N) LT 1).ATTR
         AGO   .ATTR
.HIGH    ANOP
&B4      SETB  1
         AGO   .SFSCAN
.PROT    ANOP
&B2      SETB  1
         AGO   .SFSCAN
.REV     ANOP
&B6      SETB  1
         AIF   ('&SYSLIST(&N+1)' EQ 'BLINK').BOTH
         AIF   ('&SYSLIST(&N+1)' EQ 'B').BOTH
         AGO   .SFSCAN
.BOTH    ANOP
&B0      SETB  1
&N       SETA  &N+1
         AGO   .SFSCAN
.NOPRT   ANOP
&B4      SETB  1
&B5      SETB  1
         AGO   .SFSCAN
.BLINK     ANOP
&B6      SETB  1
&B0      SETB  1
         AIF   ('&SYSLIST(&N+1)' EQ 'REVERSE').ALSO
         AIF   ('&SYSLIST(&N+1)' EQ 'R').ALSO
&B1      SETB  0
         AGO   .SFSCAN
.ALSO    ANOP
&N       SETA  &N+1
         AGO   .SFSCAN
.MDT     ANOP
&B7      SETB  1
         AGO   .SFSCAN
.NUM     ANOP
&B3      SETB  1
         AGO   .SFSCAN
.SKIP    ANOP
&B2      SETB  1
&B3      SETB  1
         AGO   .SFSCAN
.LOW     ANOP
&B4      SETB  0
&B5      SETB  1
         AGO   .SFSCAN
.UNP     ANOP
&B2      SETB  0
         AGO   .SFSCAN
.ALPHA   ANOP
&B3      SETB  0
         AGO   .SFSCAN
.*
.*       ISSUE DC FOR ATTRIBUTE BYTE
.*
.ATTR    DC    X'1D',B'&B0&B1&B2&B3&B4&B5&B6&B7' ATTRIBUTE BYTE
         AGO   .SCAN
.EXIT    MEXIT
         MEND
