         MACRO
&NAME    TERME &XCTL,&LV=72,&SP=0,&RC=(15),&LVA=,&LIST=NO
.******************************************************************
.*
         MNOTE ' ***** TERME MACRO 08/25/76 TOM CAIN'
         AIF   ( '&LIST' EQ 'NO' ).NOLIST
*
*NAME    TERME &XCTL,&LV=72,&SP=0,&RC=(15),&LVA=,&LIST=NO
*
*   IF XCTL IS SPECIFIED CONTROL WILL NOT BE RETURNED AND
*   INSTRUCTIONS WILL BE GENERATED WHICH WILL ALLOW THE XCTL MACRO TO
*   BE GIVEN IMMEDIATELY FOLLOWING THE TERME MACRO.
*
*   ALL OPERANDS ARE OPTIONAL.
*
*   LV=  IS THE LENGTH OF THE AREA TO FREE (SAME AS FROM PRIME)
*   LV=0 WILL NOT GENERATE SAVE AREA CHAINING
*   LVA= IS USED BY THE LINKAGE MACRO TO INDICATE THAT FREEMAIN
*        SHOULD NOT BE GENERATED OR THAT FREEMAIN LV=(0) WILL BE
*        USED WITH LVA= SPECIFIED THE FULLWORD WITH SP= AND LV= VALUES
*
*   SP=  IS THE SUB POOL OF THE AREA (SAME AS PRIME)
*
*   RC=  IS THE SOURCE OF THE RETURN CODE VALUE.
*        IT CAN BE A REGISTER (2-12,15) OR THE SYMBOLIC NAME OF A
*        FULLWORD OR AN IMMEDIATE VALUE (0 TO 4095).
*        DEFAULTS TO RC=(15).
*
* REGISTERS 0, 1, AND 15 WILL NOT BE RESTORED
*
.**********************************************************************
.NOLIST  AIF   ( T'&NAME EQ 'O' ).NOLABEL
&NAME    DS    0H
.NOLABEL AIF   ( T'&RC EQ 'O' ).RCSET
         AIF   ( '&RC'(1,1) EQ '(' ).RCREG
         AIF   ( T'&RC EQ 'N' ).RCNUM
         L     15,&RC              SET RETURN CODE
         AGO   .RCSET
.RCNUM   LA    15,&RC
         AGO   .RCSET
.RCREG   AIF   ( '&RC'(2,3) EQ 'R15' OR '&RC'(2,2) EQ '15' ).RCSET
         LR    15,&RC(1)
.RCSET   AIF   ( '&LV' NE '0' ).HIGHSV
         ST    15,16(0,13)         STORE RETURN CODE
         AGO   .RESTORE
.HIGHSV  L     13,4(0,13)          GET HIGHER SA PTR
         STM   15,1,16(13)         TEMP FOR 15 TO 1
         AIF   ( '&LVA' EQ 'NOFREEMAIN' ).RESTORE
         XI    8(13),X'DC'         Q. FREE SAVE AREA ????
         BNZ   T&SYSNDX               NO
         L     1,8(0,13)              YES
         AIF   ( T'&LVA EQ 'O' ).FREEM
         L     0,&LVA
.FREEM   FREEMAIN R,LV=&LV,A=(1),SP=&SP
.RESTORE ANOP
T&SYSNDX LM    14,12,12(13)        RESTORE REGS
         XC    8(4,13),8(13)       REMOVE SA LINKAGE
         SPM   14
         AIF   ( '&XCTL' EQ 'XCTL' ).XCTL
         BR    14
         MEXIT
.XCTL    BALR  15,0
         USING *,15
         MEND
