./ ADD  NAME=$ALLOC
         MACRO
&NAME    $ALLOC   &DSECT=NO,&CSECT=YES,&CONTDS=NO
*----------------------------------------------------------------------
*
*        BINARY ZEROS IN ANY FIELD WILL CAUSE THAT FIELD TO BE
*        IGNORED FOR THE ALLOCATION/DE-ALLOCATION
*
*        VALID PARAMETER FORMATS ARE SHOWN BELOW
*
*----------------------------------------------------------------------
         AIF   ('&DSECT' EQ 'YES').CHKCONT
&NAME    DS    0D
*    WORK AREA AND ERROR RETURN CODES
DYNWRK   DC    D'0'             DOUBLE WORD WORK AREA
DYNLEN   DC    AL1(DYNLL)       LENGTH OF THIS SECTION
DYNR15   DC    CL4' '           R15 FROM SVC99
DYNERR   DC    CL4' '           ERROR CODE
DYNINFO  DC    CL4' '           INFO CODE
*    DYNAMIC ALLOCATION PARAMETERS
DYNTYPE  DC    CL1' '    A=ALLOCATE D=DEALLOCATE C=CONCATENATE
DYNDDNM  DC    XL8'00'   CHAR - DDNAME
DYNDSN   DC    XL44'00'  CHAR - DSNAME
DYNMBR   DC    XL8'00'   CHAR - MEMBER
*
DYNDISP1 DC    XL1'00'   HEX  - DATA SET STATUS
DYNOLD   EQU   X'01'     OLD
DYNMOD   EQU   X'02'     MOD
DYNNEW   EQU   X'04'     NEW
DYNSHR   EQU   X'08'     SHR
*
DYNDISP2 DC    XL1'00'   HEX  - NORMAL DISPOSITION
DYNDISP3 DC    XL1'00'   HEX  - CONDITIONAL DISPOSTION
DYNUNCAT EQU   X'01'     UNCATLG
DYNCAT   EQU   X'02'     CATLG
DYNDEL   EQU   X'04'     DELETE
DYNKEEP  EQU   X'08'     KEEP
*
DYNBTC   DC    XL3'00'   CHAR - 'BLK'   'TRK'   'CYL'   ALLOCATION
*
DYNPRIM  DC    XL3'00'   HEX  - PRIMARY ALLOCATION IN ABOVE UNITS
DYNSEC   DC    XL3'00'   HEX  - SECONDARY ALLOCATION IN ABOVE UNITS
DYNDIR   DC    XL3'00'   HEX  - DIRECTORY BLOCKS
*
DYNRLSE  DC    XL1'00'   ANY  - RELEASE OPTION SELECTED IF NON-ZERO
DYNROUND DC    XL1'00'   ANY  - ROUND OPTION SELECTED IF NON-ZERO
*
DYNVOLSR DC    XL6'00'   CHAR - VOLSER
DYNUNIT  DC    XL8'00'   CHAR - UNIT NAME
*
DYNSYSOU DC    XL1'00'   CHAR - SYSOUT CLASS
DYNSPGNM DC    XL8'00'   CHAR - SYSOUT WRITER NAME
*
DYNFREE  DC    XL1'00'   ANY  - FREE=CLOSE SELECTED IF NON-ZERO
*
DYNTERM  DC    XL1'00'   ANY  - TSO TERMINAL ALLOCATION
*
DYNBLKSZ DC    XL2'00'   HEX  - BLKSIZE
DYNLRECL DC    XL2'00'   HEX  - LRECL
*
DYNRECFM DC    XL1'00'   HEX  - RECFM
DYNM     EQU   X'02'     M    - MACHINE CHARACTER
DYNA     EQU   X'04'     A    - ASA CHARACTER
DYNS     EQU   X'08'     S    - STANDARD OR SPANNED
DYNB     EQU   X'10'     B    - BLOCKED
DYNT     EQU   X'20'     D    - VARIABLE ASCII   T - TRACK OVERFLOW
DYNV     EQU   X'40'     V    - VARIABLE
DYNF     EQU   X'80'     F    - FIXED
DYNFB    EQU   X'90'     FB   - FIXED BLOCKED
DYNFBA   EQU   X'94'     FBA  - FIXED BLOCKED ASA
DYNVB    EQU   X'50'     VB   - VARIABLE BLOCKED
DYNVBA   EQU   X'54'     VBA  - VARIABLE BLOCKED
DYNVBS   EQU   X'58'     VBS  - VARIABLE BLOCKED SPANNED
DYNU     EQU   X'C0'     U    - UNDEFINED RECORDS
*
DYNDUMMY DC    XL1'00'   ANY  - DD DUMMY
DYNUNALC DC    XL1'00'   ANY  - DE-ALLOC EVEN IF PERM ATTRIBUTE IS ON
*
DYNDEST  DC    XL8'00'   CHAR - SYSOUT DESTINATION ID - R0 - R255
DYNFORM  DC    XL4'00'   CHAR - SYSOUT FORM ID
DYNCOPYS DC    XL1'00'   HEX  - NUMBER OF COPIES  01 - FF
DYNFCB   DC    XL4'00'   CHAR - FCB IMAGE NAME
*
DYNRTDD  DC    XL8'00'   ANY  - NON-ZERO IN BYTE 1 INDICATES DDNAME TO
*                               BE RETURNED, IT WILL BE RETURNED HERE
DYNEND   EQU   *
DYNEPA   DC    F'0'
DYNLL    EQU   DYNEND-DYNWRK    LENGTH OF THIS SECTION
         AGO   .DONE
.CHKCONT AIF   ('&CONTDS' EQ 'YES').DS
         DSECT
.DS      ANOP
&NAME    DS    0D
*    WORK AREA AND ERROR RETURN CODES
DYNWRK   DS    D                DOUBLE WORD WORK AREA
DYNLEN   DS    AL1              LENGTH OF THIS SECTION
DYNR15   DS    CL4              R15 FROM SVC99
DYNERR   DS    CL4              ERROR CODE
DYNINFO  DS    CL4              INFO CODE
*    DYNAMIC ALLOCATION PARAMETERS
DYNTYPE  DS    CL1       A=ALLOCATE D=DEALLOCATE
DYNDDNM  DS    XL8       CHAR - DDNAME
DYNDSN   DS    XL44      CHAR - DSNAME
DYNMBR   DS    XL8       CHAR - MEMBER
*
DYNDISP1 DS    XL1       HEX  - DATA SET STATUS
DYNOLD   EQU   X'01'     OLD
DYNMOD   EQU   X'02'     MOD
DYNNEW   EQU   X'04'     NEW
DYNSHR   EQU   X'08'     SHR
*
DYNDISP2 DS    XL1       HEX  - NORMAL DISPOSITION
DYNDISP3 DS    XL1       HEX  - CONDITIONAL DISPOSTION
DYNUNCAT EQU   X'01'     UNCATLG
DYNCAT   EQU   X'02'     CATLG
DYNDEL   EQU   X'04'     DELETE
DYNKEEP  EQU   X'08'     KEEP
*
DYNBTC   DS    XL3       CHAR - 'BLK'   'TRK'   'CYL'   ALLOCATION
*
DYNPRIM  DS    XL3       HEX  - PRIMARY ALLOCATION IN ABOVE UNITS
DYNSEC   DS    XL3       HEX  - SECONDARY ALLOCATION IN ABOVE UNITS
DYNDIR   DS    XL3       HEX  - DIRECTORY BLOCKS
*
DYNRLSE  DS    XL1       ANY  - RELEASE OPTION SELECTED IF NON-ZERO
DYNROUND DS    XL1       ANY  - ROUND OPTION SELECTED IF NON-ZERO
*
DYNVOLSR DS    XL6       CHAR - VOLSER
DYNUNIT  DS    XL8       CHAR - UNIT NAME
*
DYNSYSOU DS    XL1       CHAR - SYSOUT CLASS
DYNSPGNM DS    XL8       CHAR - SYSOUT WRITER NAME
*
DYNFREE  DS    XL1       ANY  - FREE=CLOSE SELECTED OF NON-ZERO
*
DYNTERM  DS    XL1       ANY  - TSO TERMINAL ALLOCATION
*
DYNBLKSZ DS    XL2       HEX  - BLKSIZE
DYNLRECL DS    XL2       HEX  - LRECL
*
DYNRECFM DS    XL1       HEX  - RECFM
DYNM     EQU   X'02'     M    - MACHINE CHARACTER
DYNA     EQU   X'04'     A    - ASA CHARACTER
DYNS     EQU   X'08'     S    - STANDARD OR SPANNED
DYNB     EQU   X'10'     B    - BLOCKED
DYNT     EQU   X'20'     D    - VARIABLE ASCII   T - TRACK OVERFLOW
DYNV     EQU   X'40'     V    - VARIABLE
DYNF     EQU   X'80'     F    - FIXED
DYNFB    EQU   X'90'     FB   - FIXED BLOCKED
DYNFBA   EQU   X'94'     FBA  - FIXED BLOCKED ASA
DYNVB    EQU   X'50'     VB   - VARIABLE BLOCKED
DYNVBA   EQU   X'54'     VBA  - VARIABLE BLOCKED
DYNVBS   EQU   X'58'     VBS  - VARIABLE BLOCKED SPANNED
DYNU     EQU   X'C0'     U    - UNDEFINED RECORDS
*
DYNDUMMY DS    XL1       ANY  - DD DUMMY
DYNUNALC DS    XL1       ANY  - DE-ALLOC EVEN IF PERM ATTRIBUTE IS ON
*
DYNDEST  DS    XL8       CHAR - SYSOUT DESTINATION ID - R0 - R255
DYNFORM  DS    XL4       CHAR - SYSOUT FORM ID
DYNCOPYS DS    XL1       HEX  - NUMBER OF COPIES  01 - FF
DYNFCB   DS    XL4       CHAR - FCB IMAGE NAME
*
DYNRTDD  DS    XL8       ANY  - NON-ZERO IN BYTE 1 INDICATES DDNAME TO
*                               BE RETURNED, IT WILL BE RETURNED HERE
DYNEND   EQU   *
DYNEPA   DS    F
DYNLL    EQU   DYNEND-DYNWRK    LENGTH OF THIS SECTION
         AIF   ('&CSECT' EQ 'NO').DONE
&SYSECT  CSECT
.DONE    ANOP
         MEND
./ ADD  NAME=$DASDLOG
         MACRO
&NAME    $DASDLOG &DSECT=NO,&CSECT=YES,&CONTDS=NO
*----------------------------------------------------------------------
*
*        RECORD LAYOUT FOR DASD SPACE REQUEST LOG
*
*----------------------------------------------------------------------
         AIF   ('&DSECT' EQ 'YES').CHKCONT
&NAME    EQU   *
*
*        GENERAL DATA OR DELETE REQUEST RECORD
*
DLSRCKEY DS    0CL47
DLREQTYP DC    C' '               REQUEST TYPE(A-ADD, C-CHG, OR D-DELT)
DLSEQNO  DC    CL2' '             SEQUENCE NUMBER
DLDSN    DC    CL44' '            DATA SET NAME
DLREQDTE DC    CL6' '             REQUEST DATE
DLCMPDTE DC    CL6' '             COMPLETE DATE
DLDSTYPE DC    CL4' '             REQUEST DATA SET TYPE
DLREQER  DC    CL30' '            REQUESTER
DLNXTSEQ DC    PL2'0'             NEXT SEQUENCE NUMBER
DLDELGH  EQU   *-&NAME            LENGTH OF DELETE RECORD
*              *                              *              *
*              * SPACE ALLOCATION INFORMATION *              *
*              *                              *              *
DLALLTYP DC    CL4' '             ALLOCATE TYPE(BLKS, TRKS, OR CYLS)
DLALLPRI DC    PL4'0'             PRIMARY ALLOCATION
DLALLSEC DC    PL4'0'             SECONDARY ALLOCATION
*
*        DATA RELATE TO NON-VSAM ADD REQUEST
*
*              *                              *              *
*              *        USER INPUT DATA       *              *
*              *                              *              *
DLRECNO  DC    PL4'0'             NUMBER OF RECORDS
DLRECLGH DC    PL3'0'             RECORD LENGTH
DLDIRBLK DC    PL2'0'             DIRECTORY BLOCK(PDS ONLY)
DLBLKSZ  DC    PL3'0'             BLKSIZE
DLNVLGH  EQU   *-&NAME            LENGTH OF NON-VSAM ADD RECORD
         ORG   DLRECLGH
*
*        DATA RELATE TO VSAM ADD REQUEST
*
*              *                              *              *
*              *        USER INPUT DATA       *              *
*              *                              *              *
DLAVGLGH DC    PL3'0'             AVERAGE LRECL
DLMAXLGH DC    PL3'0'             MAXIMUM LRECL
DLSHROPT DC    CL3' '             SHR OPTION
DLBKGDG# DC    PL2'0'             BACKUP GDG NUMBER
DLDACISZ DC    PL3'0'             DATA PORTION CI SIZE
DLCLTYPE DC    CL4' '             CLUSTER TYPE(KSDS, ESDS, OR RBA)
*              *                              *              *
*              *       KSDS REQUIRED DATA     *              *
*              *                              *              *
DLRKP    DC    PL3'0'             RELATIVE KEY POSITION
DLKEYLGH DC    PL3'0'             KEY LENGTH
DLPCI    DC    PL2'0'             CI PERCENT FREE SPACE
DLPCA    DC    PL2'0'             CA PERCENT FREE SPACE
DLIXCISZ DC    PL3'0'             INDEX PORTION CI SIZE
*              *                              *              *
*              *       MODEL CLUSTER NAME     *              *
*              *                              *              *
DLMODLNM DC    CL44' '            MODEL CLUSTER NAME(OPTIONAL)
DLVLGH   EQU   *-&NAME            LENGTH OF VSAM ADD RECORD
         ORG   DLALLTYP
*
*        DATA RELATE TO CHANGE(EXPAND) REQUEST
*
DLREQCH1 DC    CL79' '            CHANGE(EXPAND) REQUEST DATA 1
DLREQCH2 DC    CL79' '            CHANGE(EXPAND) REQUEST DATA 2
DLREQCH3 DC    CL79' '            CHANGE(EXPAND) REQUEST DATA 3
DLREQCH4 DC    CL79' '            CHANGE(EXPAND) REQUEST DATA 4
DLCHGLGH EQU   *-&NAME            LENGTH OF CHANGE RECORD
         AGO   .DONE
.CHKCONT AIF   ('&CONTDS' EQ 'YES').DS
         DSECT
.DS      ANOP
&NAME    EQU   *
         AIF   ('&CSECT' EQ 'NO').DONE
*
*        GENERAL DATA OR DELETE REQUEST RECORD
*
DLSRCKEY DS    0CL47
DLREQTYP DS    C                  REQUEST TYPE(A-ADD, C-CHG, OR D-DELT)
DLSEQNO  DS    CL2                SEQUENCE NUMBER
DLDSN    DS    CL44               DATA SET NAME
DLREQDTE DS    CL6                REQUEST DATE
DLCMPDTE DS    CL6                COMPLETE DATE
DLDSTYPE DS    CL4                REQUEST DATA SET TYPE
DLREQER  DS    CL30               REQUESTER
DLNXTSEQ DS    PL2                NEXT SEQUENCE NUMBER
DLDELGH  EQU   *-&NAME            LENGTH OF DELETE RECORD
*              *                              *              *
*              * SPACE ALLOCATION INFORMATION *              *
*              *                              *              *
DLALLTYP DS    CL4                ALLOCATE TYPE(BLKS, TRKS, OR CYLS)
DLALLPRI DS    PL4                PRIMARY ALLOCATION
DLALLSEC DS    PL4                SECONDARY ALLOCATION
*
*        DATA RELATE TO NON-VSAM ADD REQUEST
*
*              *                              *              *
*              *        USER INPUT DATA       *              *
*              *                              *              *
DLRECNO  DS    PL4                NUMBER OF RECORDS
DLRECLGH DS    PL3                RECORD LENGTH
DLDIRBLK DS    PL2                DIRECTORY BLOCK(PDS ONLY)
DLBLKSZ  DS    PL3                BLKSIZE
DLNVLGH  EQU   *-&NAME            LENGTH OF NON-VSAM ADD RECORD
         ORG   DLRECLGH
*
*        DATA RELATE TO VSAM ADD REQUEST
*
*              *                              *              *
*              *        USER INPUT DATA       *              *
*              *                              *              *
DLAVGLGH DS    PL3                AVERAGE LRECL
DLMAXLGH DS    PL3                MAXIMUM LRECL
DLSHROPT DS    CL3                SHR OPTION
DLBKGDG# DS    PL2                BACKUP GDG NUMBER
DLDACISZ DS    PL3                DATA PORTION CI SIZE
DLCLTYPE DS    CL4                CLUSTER TYPE(KSDS, ESDS, OR RBA)
*              *                              *              *
*              *       KSDS REQUIRED DATA     *              *
*              *                              *              *
DLRKP    DS    PL3                RELATIVE KEY POSITION
DLKEYLGH DS    PL3                KEY LENGTH
DLPCI    DS    PL2                CI PERCENT FREE SPACE
DLPCA    DS    PL2                CA PERCENT FREE SPACE
DLIXCISZ DS    PL3                INDEX PORTION CI SIZE
*              *                              *              *
*              *       MODEL CLUSTER NAME     *              *
*              *                              *              *
DLMODLNM DS    CL44               MODEL CLUSTER NAME(OPTIONAL)
DLVLGH   EQU   *-&NAME            LENGTH OF VSAM ADD RECORD
         ORG   DLALLTYP
*
*        DATA RELATE TO CHANGE(EXPAND) REQUEST
*
DLREQCH1 DS    CL79               CHANGE(EXPAND) REQUEST DATA 1
DLREQCH2 DS    CL79               CHANGE(EXPAND) REQUEST DATA 2
DLREQCH3 DS    CL79               CHANGE(EXPAND) REQUEST DATA 3
DLREQCH4 DS    CL79               CHANGE(EXPAND) REQUEST DATA 4
DLCHGLGH EQU   *-&NAME            LENGTH OF CHANGE RECORD
         AIF   ('&CSECT' EQ 'NO').DONE
&SYSECT  CSECT
.DONE    ANOP
         MEND
./ ADD  NAME=$EPILOG
         MACRO
&LABEL   $EPILOG &RC
         GBLC  &PROGM
&LABEL   LR    R1,R13              GET SAVEAREA ADDRESS
         L     R13,4(R13)          GET BACK CHAIN POINTER
         AIF   ('&PROGM' NE 'GETMAIN').NOFREE
         L     R0,16(R13)          GET SAVEAREA LENGTH
         ST    R15,16(R13)         SAVE REGISTER 15 (RETCODE)
         FREEMAIN R,LV=(0),A=(1)   FREE SAVEAREA
         AGO   .LM
.NOFREE  ANOP
         ST    R15,16(R13)         SAVE REGISTER 15 (RETCODE)
.LM      ANOP
         LM    R14,R12,12(R13)     RESTORE CALLERS REGS
         AIF   (T'&RC EQ 'O').SPEC
         LA    R15,&RC             SET RETURN CODE
.SPEC    ANOP
         BR    R14                 RETURN TO CALLER
         MEND
./ ADD  NAME=$ISPCMDS
         MACRO
&NAME    $ISPCMDS &TABLES=NO,&FILES=NO
*----------------------------------------------------------------------
*
*----------------------------------------------------------------------
&NAME    DS    0D
SPFA     EQU   *
*        DISPLAY SERVICES
DISPLAY  DC    CL8'DISPLAY'
TBDISPL  DC    CL8'TBDISPL'
         AIF   ('&TABLES' EQ 'NO').NT
*        TABLE SERVICES - GENERAL
TBCREATE DC    CL8'TBCREATE'
TBOPEN   DC    CL8'TBOPEN'
TBQUERY  DC    CL8'TBQUERY'
TBSAVE   DC    CL8'TBSAVE'
TBCLOSE  DC    CL8'TBCLOSE'
TBEND    DC    CL8'TBEND'
TBERASE  DC    CL8'TBERASE'
*        TABLE SERVICES - ROW OPERATIONS
TBADD    DC    CL8'TBADD'
TBDELETE DC    CL8'TBDELETE'
TBGET    DC    CL8'TBGET'
TBPUT    DC    CL8'TBPUT'
TBMOD    DC    CL8'TBMOD'
TBEXIST  DC    CL8'TBEXIST'
TBSCAN   DC    CL8'TBSCAN'
TBSARG   DC    CL8'TBSARG'
TBTOP    DC    CL8'TBTOP'
TBBOTTOM DC    CL8'TBBOTTOM'
TBSKIP   DC    CL8'TBSKIP'
TBVCLEAR DC    CL8'TBVCLEAR'
.NT      ANOP
         AIF   ('&FILES' EQ 'NO').NF
*        FILE TAILORING SERVICES
FTOPEN   DC    CL8'FTOPEN'
FTINCL   DC    CL8'FTINCL'
FTCLOSE  DC    CL8'FTCLOSE'
FTERASE  DC    CL8'FTERASE'
.NF      ANOP
*        VARIABLE SERVICES
VGET     DC    CL8'VGET'
VPUT     DC    CL8'VPUT'
VDEFINE  DC    CL8'VDEFINE'
VDELETE  DC    CL8'VDELETE'
VCOPY    DC    CL8'VCOPY'
VREPLACE DC    CL8'VREPLACE'
VRESET   DC    CL8'VRESET'
*        OTHER SERVICES
SELECT   DC    CL8'SELECT'
CONTROL  DC    CL8'CONTROL'
BROWSE   DC    CL8'BROWSE'
EDIT     DC    CL8'EDIT'
LOG      DC    CL8'LOG'
*        FUNCTIONS/MODES
CANCEL   DC    CL8'CANCEL'
DISABLE  DC    CL8'DISABLE'
ENABLE   DC    CL8'ENABLE'
END      DC    CL8'END'
ENTER    DC    CL8'ENTER'
ERRORS   DC    CL8'ERRORS'
LINE     DC    CL8'LINE'
LOCATE   DC    CL8'LOCATE'
MOVE     DC    CL8'MOVE'
NEWCOPY  DC    CL8'NEWCOPY'
NOFT     DC    CL8'NOFT'
NONDISPL DC    CL8'NONDISPL'
NOWRITE  DC    CL8'NOWRITE'
PROFILE  DC    CL8'PROFILE'
REFRESH  DC    CL8'REFRESH'
REPLCOPY DC    CL8'REPLCOPY'
RETURN   DC    CL8'RETURN'
SHARED   DC    CL8'SHARED'
SPLIT    DC    CL8'SPLIT'
SM       DC    CL8'SM'
TEMP     DC    CL8'TEMP'
WRITE    DC    CL8'WRITE'
*        FORMATS
CHAR     DC    CL8'CHAR'
FIXED    DC    CL8'FIXED'
BIT      DC    CL8'BIT'
HEX      DC    CL8'HEX'
*
*        PRE-DEFINED FIELDS FOR CALLS TO ISPLINK
*
PANEL    DC    CL8' '
PROC     DC    CL8' '
MSG      DC    CL8' '
CURSOR   DC    CL8' '
OPT      DC    CL8' '
SPFRC    DC    CL4' '
*
*
SPFB     EQU   *
SPFLEN   EQU   (SPFB-SPFA)
         MEND
./ ADD  NAME=$ISPVALL
         MACRO
&NAME    $ISPVALL &FIELD=NULL,&TYPE=C,&NAMELST=NULL,&PERFORM=(NULL),   X
               &VGET=NULL,&VPUT=NULL,&PRINT=NOGEN
.** * * * * * * * * * * * * * * * * * * * * * * * * * * * * * * * * * *
.*       DATE WRITTEN: APR,   1981        AUTHOR: ALAN RICHARDS       *
.** * * * * * * * * * * * * * * * * * * * * * * * * * * * * * * * * * *
.*       THE PURPOSE OF THIS MACRO IS TO ALLOW THE GENERATION OF      *
.*       A TABLE OF CALL LISTS WHICH CAN BE USED FOR INVOKING         *
.*       ISPF VDEFINE,VGET,VPUT CALLS.                                *
.*                                                                    *
.*       &ALLSYM = 1-4 CHAR PREFIX OF FIELDS GENERATED IN THIS MACRO. *
.*                                                                    *
.*       &FIELD= FIELD NAME WITHIN PROGRAM WHICH IS TARGET OF VDEFINE *
.*               LENGTH OF THIS FIELD IS USED FOR SOURCE LENGTH       *
.*       &TYPE = IS DATA TYPE OF TARGET FIELD                         *
.*                                                                    *
.*       &VGET = IS THE SOURCE POOL FOR THE VGET FUNCTION             *
.*               IF BLANK THEN NO CALL LOGIC WILL BE GENERATED        *
.*                                                                    *
.*       &VPUT = IS THE SOURCE POOL FOR THE VPUT FUNCTION             *
.*               IF BLANK THEN NO CALL LOGIC WILL BE GENERATED        *
.*                                                                    *
.*       &NAMELST = IS THE PANEL FIELD NAMES WHICH ARE MAPPED INTO    *
.*                  TARGET FIELD                                      *
.*                  FORMAT OF NAMELST IS                              *
.*                  NAMELST=X                                         *
.*                  NAMELST=(X) OR =(X,Y,Z)                           *
.*                  NAMELST='X' OR ='X Y Z' OR ='X,Y,Z'               *
.*                  IF NOT SPECIFIED DEFAULT TO FIELD NAME            *
.*       &PERFORM = REGISTER WHICH WILL BE USED TO PERFORM THE        *
.*               TABLE HANDLING ROUTINE. IF SPECIFIED SPECIAL         *
.*               LOGIC WILL BE GENERATED TO PROCESS TABLE. THE        *
.*               LABEL TO REFERENCE IN THE PERFORM WILL BE THE        *
.*               NAME ON THE MACRO CARD CONCATENATED WITH 'CALL'      *
.** * * * * * * * * * * * * * * * * * * * * * * * * * * * * * * * * * *
         GBLC  &ALLSTRT,&ALLSYM
         GBLC  &GVGET,&GVPUT
         GBLA  &SEQNO
         LCLC  &NEXT,&PREV,&T,&F,&LF,&N,&PREVNO,&NEXTNO
         LCLC  &LABL,&SAVE,&LOOP,&DONE,&EXIT,&FRST,&CURR,&NLAB
         LCLA  &COUNT,&LEN,&Y
         LCLC  &FUNCOFF
         PUSH  PRINT
         PRINT &PRINT
.CKSTART ANOP
         AIF   ('&ALLSTRT' NE 'START').NOSTART
&ALLSYM  SETC  'VALL'
&GVGET   SETC  'NULL'
&GVPUT   SETC  'NULL'
         AIF   ('&NAME' EQ '').SETSEQ1
&ALLSYM  SETC  '&NAME'
.SETSEQ1 ANOP
&SEQNO   SETA  0
         AGO   .CKFUNC
.NOSTART ANOP
         AIF   ('&NAME' EQ '').CKFUNC
         AIF   ('&NAME' EQ '&ALLSYM').CKFUNC
&SEQNO   SETA  0
&ALLSYM  SETC  '&NAME'
&GVGET   SETC  'NULL'
&GVPUT   SETC  'NULL'
.CKFUNC  ANOP
         AIF   ('&VGET' EQ 'NULL').CKPUT1
&GVGET   SETC  '&VGET'
.CKPUT1  ANOP
         AIF   ('&VGET' EQ 'NULL').CKTYPE
&GVPUT   SETC  '&VPUT'
.CKTYPE  ANOP
         AIF   ('&TYPE' EQ 'C').SETCHAR
         AIF   ('&TYPE' EQ 'F').SETFIX
         AIF   ('&TYPE' EQ 'B').SETBIT
         AIF   ('&TYPE' EQ 'H').SETHEX
         MNOTE 8,'INVALID TYPE SPECFIED = &TYPE ONLY VALID TYPES ARE'
         MNOTE 8,'C FOR CHAR,X FOR HEX,B FOR BIT,F FOR FIXED'
         AGO   .MEND
.SETCHAR ANOP
&T       SETC  'CHAR'
         AGO   .CKFIELD
.SETFIX  ANOP
&T       SETC  'FIXED'
         AGO   .CKFIELD
.SETBIT  ANOP
&T       SETC  'BIT'
         AGO   .CKFIELD
.SETHEX  ANOP
&T       SETC  'HEX'
         AGO   .CKFIELD
.CKFIELD ANOP
         AIF   ('&FIELD' NE 'NULL').SETFLD
         MNOTE 8,'NO FIELD SPECIFIED NONE ASSUMED'
         AGO   .MEND
.SETFLD  ANOP
&F       SETC  '&FIELD'
         AGO   .CKNAME
.CKNAME  ANOP
         AIF   ('&NAMELST' NE 'NULL').CKSEQNO
         AIF   ('&FIELD' NE 'NULL').CKSEQNO
         MNOTE 8,'NO NAMELIST OR FIELD SPECIFIED NONE ASSUMED'
         AGO   .MEND
.CKSEQNO ANOP
&PREVNO  SETC  '&SEQNO'
&PREV    SETC  '&ALLSYM'.'&PREVNO'
         AIF   (&SEQNO NE 0).UPSEQNO
         AIF   ('&PERFORM' EQ 'NULL').INITPRM
&LABL    SETC  '&ALLSYM'(1,4).'VDEF'
&SAVE    SETC  '&ALLSYM'.'SAV'  LINKAGE SAVE AREA
&LOOP    SETC  '&ALLSYM'.'LOP'  LOOP
&DONE    SETC  '&ALLSYM'.'EOT'  END OF TABLE
&EXIT    SETC  '&ALLSYM'.'RET'  RETURN
&CURR    SETC  '&ALLSYM'.'CUR'  CURRENT TABLE POSITION
&FRST    SETC  '&ALLSYM'.'0'    FIRST TABLE ENTRY
&FUNCOFF SETC  '&ALLSYM'.'OFF'  FUNCTION OFFSET
&LABL    DS    0H
         ST    &PERFORM,&SAVE
         MVC   &FUNCOFF,=F'4'   OFFSET OF VDEFINE LIST
         LA    1,&FRST          POINT TO START OF TABLE
         B     &LOOP
         AIF   ('&GVGET' EQ 'NULL').CKIFPUT
&LABL    SETC  '&ALLSYM'(1,4).'VGET'
&LABL    DS    0H
         ST    &PERFORM,&SAVE
         MVC   &FUNCOFF,=F'28'  OFFSET OF VGET LIST
         LA    1,&FRST          POINT TO START OF TABLE
         B     &LOOP
.CKIFPUT ANOP
         AIF   ('&GVPUT' EQ 'NULL').GENLOOP
&LABL    SETC  '&ALLSYM'(1,4).'VPUT'
&LABL    DS    0H
         ST    &PERFORM,&SAVE
         MVC   &FUNCOFF,=F'40'  OFFSET OF VPUT LIST
         LA    1,&FRST          POINT TO START OF TABLE
         B     &LOOP
.GENLOOP ANOP
&LOOP    DS    0H
         CLC   0(4,1),=F'0'     IF NEXT ENTRY POINTS TO ZERO
         BE    &DONE            THEN LAST ENTRY IN TABLE
         ST    1,&CURR          SAVE CURRENT ENTRY
         A     1,&FUNCOFF       POINT TO SELECTED FUNCTION LIST
         CALL  ISPLINK          TO SPF
         LTR   15,15
         BNZ   &EXIT
         L     1,&CURR          PICK UP CURRENT ENTRY
         L     1,0(1)           POINT TO NEXT TABLE ENTRY
         B     &LOOP
&DONE    DS    0H
         SLR   15,15
&EXIT    DS    0H
         L     &PERFORM,&SAVE
         BR    &PERFORM
&SAVE    DC    F'0'             SAVE AREA FOR LINKAGE REGISTER
&CURR    DC    F'0'             SAVE ADDRESS OF CURRENT TABLE ENTRY
&FUNCOFF DC    F'0'             OFFSET OF FUNCTION LIST
.INITPRM ANOP
&PREV    DC    F'0'
.UPSEQNO ANOP
&SEQNO   SETA  &SEQNO+1
&NLAB    SETC  'N'.'&ALLSYM'.'&SEQNO'
&NEXTNO  SETC  '&SEQNO'
&NEXT    SETC  '&ALLSYM'.'&NEXTNO'
.SETVALL ANOP
         ORG  *-4
         DC   A(&NEXT)
         DC   A(VDEFINE,&NLAB)
         DC   A(&F,&T)
&LF      SETC 'L'''.'&F'
         DC   X'80',AL3(*+3)
         DC   A(&LF)
         AIF   ('&GVGET' EQ 'NULL').CKPUT
         DC   A(VGET,&NLAB)
         DC   X'80',AL3(&GVGET)
.CKPUT   ANOP
         AIF   ('&GVPUT' EQ 'NULL').CKIFNAM
         DC   A(VPUT,&NLAB)
         DC   X'80',AL3(&GVPUT)
.CKIFNAM ANOP
         AIF   ('&NAMELST' NE 'NULL').CKIFSUB
&N       SETC  '&FIELD'
&NLAB    DC   C'(&N)'
         AGO   .SETNEXT
.CKIFSUB ANOP
         AIF   ('&NAMELST'(1,1) NE '(').CKIFQTE
&N       SETC  '('
&COUNT   SETA  N'&NAMELST
&Y       SETA  0
.LOOPN   ANOP
&Y       SETA  &Y+1
&N       SETC  '&N'.'&NAMELST(&Y)'
         AIF   (&Y GE &COUNT).ENDNAM
&N       SETC  '&N'.','
         AGO   .LOOPN
         AIF   (K'&N  LE 48).LOOPN
&NLAB    DC   C'&N'
&N       SETC  ''
         AGO   .LOOPN
.ENDNAM  ANOP
&NLAB    DC   C'&N)'
         AGO   .SETNEXT
.CKIFQTE ANOP
         AIF   ('&NAMELST'(1,1) NE '''').SETNAME
&LEN     SETA  K'&NAMELST
&LEN     SETA  &LEN-2
&N       SETC  '&NAMELST'(2,&LEN)
&NLAB    DC   C'(&N)'
         AGO   .SETNEXT
.SETNAME ANOP
&N       SETC  '&NAMELST'
&NLAB    DC   C'(&N)'
         AGO   .SETNEXT
.SETNEXT ANOP
&NEXT    DC   F'0'
.MEND    ANOP
         POP  PRINT
         MEND
./ ADD  NAME=$ISPVDEF
         MACRO
&NAME    $ISPVDEF &FIELD=NULL,&TYPE=C,&NAMELST=NULL,&PERFORM=(NULL),   X
               &PRINT=NOGEN
.** * * * * * * * * * * * * * * * * * * * * * * * * * * * * * * * * * *
.*       DATE WRITTEN: APR,   1981        AUTHOR: ALAN RICHARDS       *
.** * * * * * * * * * * * * * * * * * * * * * * * * * * * * * * * * * *
.*       THE PURPOSE OF THIS MACRO IS TO ALLOW THE GENERATION OF      *
.*       A TABLE OF CALL LISTS WHICH CAN BE USED FOR INVOKING         *
.*       ISPF CALL FUNCTIONS.                                         *
.*                                                                    *
.*       &DEFSYM = 1-4 CHAR PREFIX OF FIELDS GENERATED IN THIS MACRO. *
.*                                                                    *
.*       &FIELD= FIELD NAME WITHIN PROGRAM WHICH IS TARGET OF VDEFINE *
.*               LENGTH OF THIS FIELD IS USED FOR SOURCE LENGTH       *
.*       &TYPE = IS DATA TYPE OF TARGET FIELD                         *
.*                                                                    *
.*       &NAMELST = IS THE PANEL FIELD NAMES WHICH ARE MAPPED INTO    *
.*                  TARGET FIELD                                      *
.*                  FORMAT OF NAMELST IS                              *
.*                  NAMELST=X                                         *
.*                  NAMELST=(X) OR =(X,Y,Z)                           *
.*                  NAMELST='X' OR ='X Y Z' OR ='X,Y,Z'               *
.*                  IF NOT SPECIFIED DEFAULT TO FIELD NAME            *
.*       &PERFORM = REGISTER WHICH WILL BE USED TO PERFORM THE        *
.*               TABLE HANDLING ROUTINE. IF SPECIFIED SPECIAL         *
.*               LOGIC WILL BE GENERATED TO PROCESS TABLE. THE        *
.*               LABEL TO REFERENCE IN THE PERFORM WILL BE THE        *
.*               NAME ON THE MACRO CARD CONCATENATED WITH 'CALL'      *
.** * * * * * * * * * * * * * * * * * * * * * * * * * * * * * * * * * *
         GBLC  &DEFSTRT,&DEFSYM
         GBLA  &SEQNO
         LCLC  &NEXT,&PREV,&T,&F,&LF,&N,&PREVNO,&NEXTNO
         LCLC  &LABL,&SAVE,&LOOP,&DONE,&EXIT,&FRST,&FUNC,&CURR
         LCLA  &COUNT,&LEN,&Y
         PUSH  PRINT
         PRINT &PRINT
.CKSTART ANOP
         AIF   ('&DEFSTRT' NE 'START').NOSTART
&DEFSYM  SETC  'VDEF'
         AIF   ('&NAME' EQ '').SETSEQ1
&DEFSYM  SETC  'D'.'&NAME'
.SETSEQ1 ANOP
&SEQNO   SETA  0
         AGO   .CKTYPE
.NOSTART ANOP
         AIF   ('&NAME' EQ '').CKTYPE
         AIF   ('&NAME' EQ '&DEFSYM').CKTYPE
&SEQNO   SETA  0
&DEFSYM  SETC  'D'.'&NAME'
.CKTYPE  ANOP
         AIF   ('&TYPE' EQ 'C').SETCHAR
         AIF   ('&TYPE' EQ 'F').SETFIX
         AIF   ('&TYPE' EQ 'B').SETBIT
         AIF   ('&TYPE' EQ 'H').SETHEX
         MNOTE 8,'INVALID TYPE SPECFIED = &TYPE ONLY VALID TYPES ARE'
         MNOTE 8,'C FOR CHAR,X FOR HEX,B FOR BIT,F FOR FIXED'
         AGO   .MEND
.SETCHAR ANOP
&T       SETC  'CHAR'
         AGO   .CKFIELD
.SETFIX  ANOP
&T       SETC  'FIXED'
         AGO   .CKFIELD
.SETBIT  ANOP
&T       SETC  'BIT'
         AGO   .CKFIELD
.SETHEX  ANOP
&T       SETC  'HEX'
         AGO   .CKFIELD
.CKFIELD ANOP
         AIF   ('&FIELD' NE 'NULL').SETFLD
         MNOTE 8,'NO FIELD SPECIFIED NONE ASSUMED'
         AGO   .MEND
.SETFLD  ANOP
&F       SETC  '&FIELD'
         AGO   .CKNAME
.CKNAME  ANOP
         AIF   ('&NAMELST' NE 'NULL').CKSEQNO
         AIF   ('&FIELD' NE 'NULL').CKSEQNO
         MNOTE 8,'NO NAMELIST OR FIELD SPECIFIED NONE ASSUMED'
         AGO   .MEND
.CKSEQNO ANOP
&PREVNO  SETC  '&SEQNO'
&PREV    SETC  '&DEFSYM'.'&PREVNO'
         AIF   (&SEQNO NE 0).UPSEQNO
         AIF   ('&PERFORM' EQ 'NULL').INITPRM
&LABL    SETC  '&DEFSYM'(2,4).'VDEF'
&SAVE    SETC  '&DEFSYM'.'SAV'  LINKAGE SAVE AREA
&LOOP    SETC  '&DEFSYM'.'LOP'  LOOP
&DONE    SETC  '&DEFSYM'.'EOT'  END OF TABLE
&EXIT    SETC  '&DEFSYM'.'RET'  RETURN
&CURR    SETC  '&DEFSYM'.'CUR'  CURRENT TABLE POSITION
&FRST    SETC  '&DEFSYM'.'0'    FIRST TABLE ENTRY
&LABL    DS    0H
         ST    &PERFORM,&SAVE
         LA    1,&FRST          POINT TO START OF TABLE
&LOOP    DS    0H
         CLC   0(4,1),=F'0'     IF NEXT ENTRY POINTS TO ZERO
         BE    &DONE            THEN LAST ENTRY IN TABLE
         ST    1,&CURR          SAVE CURRENT ENTRY
         LA    1,4(1)           POINT TO VDEFPARMS
         CALL  ISPLINK          TO SPF
         LTR   15,15
         BNZ   &EXIT
         L     1,&CURR          PICK UP CURRENT ENTRY
         L     1,0(1)           POINT TO NEXT TABLE ENTRY
         B     &LOOP
&DONE    DS    0H
         SLR   15,15
&EXIT    DS    0H
         L     &PERFORM,&SAVE
         BR    &PERFORM
&SAVE    DC    F'0'             SAVE AREA FOR LINKAGE REGISTER
&CURR    DC    F'0'             SAVE ADDRESS OF CURRENT TABLE ENTRY
.INITPRM ANOP
&PREV    DC    F'0'
.UPSEQNO ANOP
&SEQNO   SETA  &SEQNO+1
&NEXTNO  SETC  '&SEQNO'
&NEXT    SETC  '&DEFSYM'.'&NEXTNO'
.SETVDEF ANOP
         ORG  *-4
         DC   A(&NEXT)
         DC   A(VDEFINE,*+20)
         DC   A(&F,&T)
&LF      SETC 'L'''.'&F'
         DC   X'80',AL3(*+3)
         DC   A(&LF)
.CKIFNAM ANOP
         AIF   ('&NAMELST' NE 'NULL').CKIFSUB
&N       SETC  '&FIELD'
         DC   C'(&N)'
         AGO   .SETNEXT
.CKIFSUB ANOP
         AIF   ('&NAMELST'(1,1) NE '(').CKIFQTE
&N       SETC  '('
&COUNT   SETA  N'&NAMELST
&Y       SETA  0
.LOOPN   ANOP
&Y       SETA  &Y+1
&N       SETC  '&N'.'&NAMELST(&Y)'
         AIF   (&Y GE &COUNT).ENDNAM
&N       SETC  '&N'.','
         AGO   .LOOPN
         AIF   (K'&N  LE 48).LOOPN
         DC   C'&N'
&N       SETC  ''
         AGO   .LOOPN