       TITLE   'IFCE0165 MODEL 165 CPU EDIT TABLE 1'
*  DSGEN MACRO     DSGEN MACRO     DSGEN MACRO     DSGEN MACRO        *
         SPACE 2
         MACRO
&NAME    DSGEN &X1,&X2,&X3,&X4,&X5,&X6,&X7,&X8,&X9,&X10,&X11,&X12,&X13,X
               &X14,&X15,&X16,&X17,&X18,&X19,&X20,&X21,&X22,&X23,&X24, X
               &X25,&X26,&X27,&X28,&X29,&X30,&X31,&X32
.*                            THIS MACRO GENERATES ONE DSECT WORD
.*                                 FORMATTED FOR THE SUBJECT LOG RECORD
.*                                 EACH OPERAND HAS TWO SUB LISTS. THE
.*                                 FIRST IS THE NAME OF THE LOG ITEM
.*                                 WHILE THE SECOND IS THE # OF BITS TO
.*                                 ALLOCATE FOR THIS ITEM. ITEMS MUST
.*                                 BE DEFINED CONTIGUOUSLY WITHOUT GAPS
.*                                 UNUSED BIT GROUPS MUST BE GIVEN
.*                                 DUMMY NAMES. THE NAMES PROVIDED FOR
.*                                 THE LOG ITEMS MAY THEN BE USED IN
.*                                 THE CONVERSION MACRO INSTRUCTIONS.
         GBLC &ITEM(1500)
         GBLA &ITEMNBR,&BITS(1500),&SHIFT(1500)
         LCLC  &SYMBOL
         LCLA  &OP,&COUNT,&BYTE
.LOOP    ANOP
&OP      SETA  &OP+1
&ITEMNBR SETA  &ITEMNBR+1
&SYMBOL  SETC  '&SYSLIST(&OP,1)'
         AIF   ('&SYSLIST(&OP,2)' NE '').OK1
         MNOTE *,'NULL BIT COUNT FIELD'
         MEXIT
.OK1     ANOP
         AIF   ('&SYMBOL' NE '').OK
         MNOTE 'LOG ITEM SYMBOL NOT PROVIDED'
         AGO   .CNT
.OK      ANOP
         AIF   ('&SYMBOL'(1,1) EQ '''').CNT                *TEMP*
&SYMBOL  EQU   *+&BYTE
&ITEM(&ITEMNBR)  SETC '&SYSLIST(&OP,1)'
&BITS(&ITEMNBR) SETA &SYSLIST(&OP,2)
&SHIFT(&ITEMNBR) SETA &COUNT-&BYTE*8
.CNT     ANOP
&COUNT   SETA  &COUNT+&SYSLIST(&OP,2)
&BYTE    SETA  &COUNT/8
         AIF (&OP LT N'&SYSLIST).LOOP
         AIF   (&COUNT NE 32).NOT32
&NAME    DS    F
         MEXIT
.NOT32   AIF   (&COUNT NE 64).ERR
&NAME    DS    D
         MEXIT
.ERR     MNOTE '**BIT COUNT FIELDS DO NOT TOTAL 32 OR 64**'
         MEND
         EJECT
*  LINE MACRO     LINE MACRO     LINE MACRO     LINE MACRO            *
         SPACE 2
         MACRO
&NAME    LINE  &DATA,&LABEL,&SKIP=
.*                            THIS MACRO ESTABLISHES THE MARGINS OR
.*                                 COLUMN SETTINGS FOR EACH LINE. IT
.*                                 GENERATES NECESSARY CARRIAGE CONTROL
.*                                 ENTRIES. LASTLY IT DETERMINES THE
.*                                 NUMBER OF ENTRIES ASSOCIATED WITH
.*                                 THE PREVIOUS LINE AND STORES THAT #
.*                                 INTO THE APPROPRIATE BYTE.
.*                            &DATA(1) - CHARACTER POSITION TO BEGIN
.*                                 DATA.
.*                            &DATA(2) - # OF SPACES BETWEEN SUCCESSIVE
.*                                 DATA COLUMN STARTING CHARACTERS.
.*                            &LABEL(1) - CHAR. POS. TO BEGIN LABELS.
.*                            &LABEL(2) - # SPACES BETWEEN LINE'S LABEL
.*                                 STARTING CHARACTERS.
.*                            &SKIP= - # OF LINES TO ADVANCE CARRIAGE
.*                                 TO BEGIN NEXT PRINTED LINE.
.*                            NEW ENTRIES ARE GENERATED ONLY WHEN
.*                                 NECESSARY. OMISSION OF ITEMS MEANS
.*                                 THEY HAVE NOT CHANGED SINCE PREVIOUS
.*                                 SETTINGS. A LINE MACRO IS REQUIRED
.*                                 FOR EACH PRINTED LINE. IF NO SETTING
.*                                 CHANGES ARE REQUIRED ALL OPERANDS
.*                                 ARE OMITTED IN WHICH CASE ONLY THE
.*                                 # OF ENTRIES FOR THE PREVIOUS LINE
.*                                 IS COMPUTED. THIS MACRO MUST BE THE
.*                                 FIRST MACRO INSTRUCTION ISSUED FOR
.*                                 THE SUBJECT LINE
         GBLA  &DB,&DT,&LB,&LT,&NRENTS
         GBLA  &LASTCC,&INITIAL
         GBLC  &NRENTSX
         GBLC  &CARRCON
         GBLB  &TEST
         LCLA  &S
&NAME    DS    0C
         AIF   (&INITIAL EQ 0).FIRSTLN
         LINEND
         AGO   .NTFIRST
.FIRSTLN ANOP
&NRENTSX SETC  'N&SYSNDX'
&INITIAL SETA  1
N&SYSNDX EQU   *
.NTFIRST ANOP
         DC    AL1(0)
         AIF   ('&DATA(1)' EQ '').CKDTABS
         AIF   (&DATA(1) EQ &DB).CKDTABS
&DB      SETA  &DATA(1)
         AGO   .AA
.CKDTABS AIF   ('&DATA(2)' EQ '').NCDATA
         AIF   (&DATA(2) EQ &DT).NCDATA
         AGO   .CC
.AA      AIF   ('&DATA(2)' EQ '').BB
         AIF   (&DATA(2) EQ &DT).BB
.CC      ANOP
&DT      SETA  &DATA(2)
.BB      DC    XL2'FFFE'
         DC    FL1'&DB'
         DC    FL1'&DT'
&NRENTS  SETA  &NRENTS+1
.NCDATA  ANOP
         AIF   ('&LABEL(1)' EQ '').CKLTABS
         AIF   (&LABEL(1) EQ &LB).CKLTABS
&LB      SETA  &LABEL(1)
         AGO   .AAA
.CKLTABS AIF   ('&LABEL(2)' EQ '').NCLABEL
         AIF   (&LABEL(2) EQ &LT).NCLABEL
         AGO   .CCC
.AAA     AIF   ('&LABEL(2)' EQ '').BBB
         AIF   (&LABEL(2) EQ &LT).BBB
.CCC     ANOP
&LT      SETA  &LABEL(2)
.BBB     DC    XL2'FFFF'
         DC    FL1'&LB'
         DC    FL1'&LT'
&NRENTS  SETA  &NRENTS+1
.NCLABEL ANOP
         AIF   ('&SKIP' NE '').CONT
         AIF   (&TEST EQ 0).NOCHANG
&S       SETA  &LASTCC
         AGO   .DEFAULT
.CONT    ANOP
         AIF   (&TEST EQ 0).AB
&S       SETA  &SKIP
.DEFAULT ANOP
         ORG   &CARRCON+3
         DC    AL.3(0),AL.2(&S),AL.3(1)
         ORG
&LASTCC  SETA  &S
&TEST    SETB  0
         AGO   .DD
.AB      AIF   (&SKIP EQ &LASTCC).NOCHANG
A&SYSNDX DC    XL2'FFFB'
         DC    AL.3(0),AL.2(&SKIP),AL.3(1)
         DC    FL1'9'
&LASTCC  SETA  &SKIP
&TEST    SETB  1
&CARRCON SETC  'A&SYSNDX'
&NRENTS  SETA  &NRENTS+1
.DD      ANOP
.NOCHANG ANOP
         MEND
         EJECT
*  BIN MACRO     BIN MACRO     BIN MACRO     BIN MACRO     BIN MACRO  *
         SPACE 2
         MACRO
         BIN   &LOGITEM,&SKIP$OR
.*                                 &LOGITEM - NAME OF ITEM IN LOG
.*                                      RECORD DSECT
.*                                 &SKIP$OR - NBR OF SPACES TO SKIP ON
.*                                 MULTIPLE PRINT OR NBR OF SPACES
.*                                      TO BACK UP FROM COLUMN FOR
.*                                      START OF PRINTING. THE LETTER
.*                                      B PRECEEDS THE NUMBER (B5) IF
.*                                      THE LATTER IS DESIRED. OMISSION
.*                                      OF THIS OPERAND FORCES OPTION 2
.*                                      WITH BACKUP SPACING EQUAL TO
.*                                 THE NUMBER OF BITS IN THE ITEM
.*                                 DEFINITION (VIA MACRO 'DSGEN').
.*                            A LIMIT OF 15 BITS IS IMPOSED FOR THE
.*                                 TOTAL NUMBER OF BITS TO PRINT.
         GBLC &ITEM(1500)
         GBLA &ITEMNBR,&BITS(1500),&SHIFT(1500),&NRENTS
         GBLC  &DSECT
         LCLB  &B
         LCLA  &IBITS,&NDX,&ISHIFT,&K
         LCLA  &TEMP,&T
         LCLC  &S
.LOOP    ANOP
&NDX     SETA  &NDX+1
         AIF   ('&ITEM(&NDX)' EQ '&LOGITEM').FOUND
         AIF   (&NDX LT &ITEMNBR).LOOP
         MNOTE *,'YOU BLEW IT'
         ROUTINE DUM,SKIPPER
         MEXIT
.FOUND   ANOP
&ISHIFT  SETA  &SHIFT(&NDX)
&IBITS   SETA  &BITS(&NDX)
&T       SETA  &IBITS-1
&B       SETB  0
         AIF   ('&SKIP$OR' EQ '').BACKUP
&K       SETA  K'&SKIP$OR
&B       SETB  ('&SKIP$OR'(1,1) EQ 'B')
&S       SETC  '&SKIP$OR'(&B+1,&K-&B)
&T       SETA  &S
.BACKUP  ANOP
&NRENTS  SETA  &NRENTS+1
&TEMP    SETA  &ISHIFT
A&SYSNDX DC    AL.12(&LOGITEM-&DSECT),XL.4'&TEMP'
         AIF (&IBITS EQ 1 AND &B EQ 0).OUT
         ORG   A&SYSNDX
&B       SETB  1
         DC    AL.12(&LOGITEM-&DSECT),XL.4'C'
         DC    BL.1'&B',AL.7(&T),AL.4(&IBITS),FL.4'&ISHIFT'
.OUT     ANOP
         MEND
         EJECT
*  HEX MACRO     HEX MACRO     HEX MACRO    HEXN MACRO     HEX MACRO  *
         SPACE 2
         MACRO
         HEX   &LOGITEM,&SKIP$OR,&BYTES
.*                            THIS MACRO FACILITATES GENERATION OF THE
.*                                 TABLE ENTRIES SPECIFYING HEX TYPE
.*                                 CONVERSIONS.
.*                            &LOGITEM - NAME OF DATA ITEM TO BE
.*                                 CONVERTED
.*                            &SKIP$OR - NUMBER OF SPACES TO SKIP ON
.*                                 MULTIPLE PRINT OR NBR OF SPACES TO
.*                                 BACK UP FROM COLUMN FOR START OF
.*                                 PRINTING. THE LETTER B PRECEEDS THE
.*                                 NUMBER (B8) IF THE LATTER OPTION IS
.*                                 DESIRED. OMISSION OF THIS OPERAND
.*                                 FORCES OPTION 2 WITH BACKUP SPACING
.*                                 EQUAL TO THE NUMBER OF BYTES SPECI-
.*                                 FIED BY THE NEXT OPERAND (TWICE THIS
.*                                 NUMBER IF SUFFIX IS EXPLICITLY OR
.*                                 IMPLICITLY B).
.*                            &BYTES - NUMBER OF TOTAL INPUT BYTES TO
.*                                 PROCESS. THIS NUMBER IS SUFFIXED
.*                                 WITH AN L,R, OR B TO STIPULATE
.*                                 PRINTING OF THE LEFT HALF, RIGHT
.*                                 HALF, OR BOTH HALVES OF THE BYTE
.*                                 RESPECTIVELY. OMISSION OF THIS
.*                                 OPERAND DEFAULTS TO B WITH THE NUM-
.*                                 BER OF BYTES EQUAL TO THE ITEM LNGTH
.*                            A NEW ENTRY IS GENERATED ONLY WHEN NECES-
.*                                 SARY. THIS MACRO MUST BE THE FIRST
.*                                 MACRO INSTRUCTION ISSUED FOR THE
.*                                 SUBJECT LINE(S).
         GBLC &ITEM(1500),&DSECT
         GBLA &ITEMNBR,&BITS(1500),&SHIFT(1500),&NRENTS
         LCLB  &B
         LCLA  &IBITS,&NDX,&ISHIFT,&K,&T,&CODE,&BYTESP
         LCLC  &S,&LETTER
.LOOP    ANOP
&NDX     SETA  &NDX+1
         AIF   ('&ITEM(&NDX)' EQ '&LOGITEM').FOUND
         AIF   (&NDX LT &ITEMNBR).LOOP
         MNOTE *,'LOG ITEM NOT DEFINED'
         MEXIT
.FOUND   ANOP
&ISHIFT  SETA  &SHIFT(&NDX)
&IBITS   SETA  &BITS(&NDX)
&CODE    SETA  1
&K       SETA  K'&BYTES
         AIF   (&IBITS-(&IBITS/4)*4 EQ 0).OK
         MNOTE *,'BIT LENGTH SPECIFICATION INCONSISTENT WITH CONTROL'
         MEXIT
.OK      AIF   ('&BYTES' EQ '').USEDEFN
&LETTER  SETC  '&BYTES'(&K,1)
&S       SETC  '&BYTES'(1,&K-1)
&BYTESP  SETA  &S
         AIF   ('&LETTER' EQ 'B').BOTH
         AIF   (&ISHIFT EQ 0 OR &ISHIFT EQ 4).OK2
.ERR     MNOTE *,'DATA NOT ALLIGNED ON HEX OR BYTE BOUNDARY'
         MEXIT
.USEDEFN ANOP
&BYTESP  SETA  &IBITS/8
.BOTH    AIF   (&ISHIFT NE 0).ERR
&CODE    SETA  3
&T       SETA  &BYTESP*2-1
&S       SETC  '&T'
.OK2     AIF   (&ISHIFT EQ 0).L
&CODE    SETA  2
.L       ANOP
&B       SETB  1
         AIF   ('&SKIP$OR' EQ '').BACKUP
&K       SETA  K'&SKIP$OR
&B       SETB  ('&SKIP$OR'(1,1) EQ 'B')
&S       SETC  '&SKIP$OR'(&B+1,&K-&B)
.BACKUP  ANOP
&NRENTS  SETA  &NRENTS+1
         DC    AL.12(&LOGITEM-&DSECT),XL.4'A'
         DC    BL.1'&B',FL.7'&S',AL.4(&BYTESP),FL.4'&CODE'
.OUT     ANOP
         MEND
         EJECT                                                 @YL02021
         SPACE 2
*  ROUTINE MACRO     ROUTINE MACRO     ROUTINE MACRO     ROUTINE MACRO*
         SPACE 2
         MACRO
&NAME    ROUTINE &LOGITEM,&RNAME
         GBLC  &DSECT,&CSECT
         GBLC  &ITEM(1500)
         GBLA  &SHIFT(1500),&ITEMNBR
         GBLA  &NRENTS
         LCLA  &ISHIFT,&NDX
.LOOP    ANOP
&NDX     SETA  &NDX+1
         AIF   ('&ITEM(&NDX)' EQ '&LOGITEM').FOUND
         AIF   (&NDX LT &ITEMNBR).LOOP
         MNOTE *,'LOG ITEM NOT DEFINED'
         MEXIT
.FOUND   ANOP
&ISHIFT  SETA  &SHIFT(&NDX)
&NAME    DC    AL.12(&LOGITEM-&DSECT),XL.4'D'
         DC    AL.4(&ISHIFT),AL.12(&RNAME-&CSECT)
&NRENTS  SETA  &NRENTS+1
         MEND
         EJECT
*  LABEL MACRO     LABEL MACRO     LABEL MACRO     LABEL MACRO        *
         SPACE 2
         MACRO                                                 @YL02021
&NAME    LABEL &LABEL1,&LABEL2,&LABEL3,&LABEL4,&LABEL5,&LABEL6,        C
               &LABEL7,&LABEL8                                 @YL02021
.*                                 THIS MACRO ALLOWS LABELS TO @YL02021
.*                                 BE SPECIFIED FOR A GIVEN LINE. THE
.*                                 LABELS SHOULD BE ENCLOSED IN QUOTA-
.*                                 TION MARKS. THE COLUMN AND LINE END
.*                                 CONTROLS WILL BE INSERTED BY THE
.*                                 MACRO. OMITTED OPERANDS MEAN NO
.*                                 LABEL REQUIRED FOR RESPECTIVE
.*                                 COLUMN.                     @YL02021
         GBLC &LABELS(2000)                                    @YL02021
         GBLC  &LBL(100)                                       @YL02021
         GBLA  &LBLCTR(100)                                    @YL02021
         GBLA  &LABELNR                                        @YL02021
         GBLA  &NRENTS,&LPTR,&INITIAL                          @YL02021
         GBLB  &DIAGTST,&DIAGSET,&DIAGLIN                      @YL02021
         LCLC  &MARGIN,&TACK                                   @YL02021
         LCLC  &TEXT                                           @YL02021
         LCLA  &OP,&K,&START,&NRCHAR,&REMAIN                   @YL02021
         AIF   (&INITIAL EQ 0).DIAGCLR                         @YL02021
         AIF   (&DIAGTST EQ 0).DIAGCLR                         @YL02021
         AIF   (&DIAGLIN EQ 1).DIAGCLR                         @YL02021
         MNOTE '**NO LINE ASSOCIATED WITH PREVIOUS LABEL**'    @YL02021
***** THE FOLLOWING GENERATED FOR TEST PURPOSES *****          @YL02021
*        LINE                                                  @YL02021
         LINE                                                  @YL02021
.DIAGCLR ANOP                                                  @YL02021
&DIAGSET SETB  0                                               @YL02021
&DIAGLIN SETB  0                                               @YL02021
&MARGIN  SETC  '*'                                             @YL02021
         AIF   ('&NAME' EQ '').LOOPOUT                         @YL02021
&LPTR    SETA  &LPTR+1                                         @YL02021
&LBL(&LPTR) SETC '&NAME'                                       @YL02021
&LBLCTR(&LPTR) SETA &LABELNR+1                                 @YL02021
.LOOPOUT ANOP                                                  @YL02021
&OP      SETA  &OP+1                                           @YL02021
&K       SETA  K'&SYSLIST(&OP)                                 @YL02021
         AIF (&K GE 2).NORM                                    @YL02021
&K       SETA  2                                               @YL02021
.NORM    ANOP                                                  @YL02021
&START   SETA  2                                               @YL02021
         AIF (&OP LT N'&SYSLIST).NOTLAST                       @YL02021
&MARGIN  SETC  '$'                                             @YL02021
.NOTLAST ANOP                                                  @YL02021
&NRCHAR  SETA  8                                               @YL02021
&TACK    SETC  ''                                              @YL02021
.LOOPIN  ANOP                                                  @YL02021
&REMAIN  SETA  &K-&START                                       @YL02021
         AIF (&REMAIN GE 8).MORE                               @YL02021
&TACK    SETC  '&MARGIN'                                       @YL02021
&NRCHAR  SETA  &REMAIN                                         @YL02021
.MORE    ANOP                                                  @YL02021
&TEXT    SETC  ''                                              @YL02021
         AIF (&REMAIN EQ 0).ENDTEXT                            @YL02021
&TEXT    SETC  '&SYSLIST(&OP)'(&START,&NRCHAR)                 @YL02021
.ENDTEXT ANOP                                                  @YL02021
&LABELNR SETA  &LABELNR+1                                      @YL02021
&LABELS(&LABELNR) SETC '&TEXT'.'&TACK'                         @YL02021
&START   SETA  &START+8                                        @YL02021
         AIF ('&TACK' EQ '').LOOPIN                            @YL02021
         AIF ('&TACK' EQ '*').LOOPOUT                          @YL02021
         MEND                                                  @YL02021
         EJECT                                                 @YL02021
         MACRO                                                 @YL02021
         LSTART ,                                              @YL02021
.*                            THIS MACRO IS ISSUED WHEN THE LABEL AREA
.*                                 OF THE TABLE IS TO BEGIN.   @YL02021
         GBLA  &LABELNR                                        @YL02021
         GBLC  &LBL(100)                                       @YL02021
         GBLC &LABELS(2000)                                    @YL02021
         GBLA  &LBLCTR(100)                                    @YL02021
         GBLB  &DIAGTST,&DIAGSET,&DIAGLIN                      @YL02021
         LCLA  &NDX,&CTR                                       @YL02021
         AIF   (&DIAGTST EQ 0).NODIAG                          @YL02021
         AIF   (&DIAGSET EQ 0).NODIAG                          @YL02021
         MNOTE '**NO LABEL ASSOCIATED WITH LAST SET**'         @YL02021
***** THE FOLLOWING GENERATED FOR TEST PURPOSES *****          @YL02021
*        LABEL '%%%%%%%%%%%%%%%%%%%%%%%%%%%%%%%%%%%%%%%%%%%%%%%%'
               LABEL '%%%%%%%%%%%%%%%%%%%%%%%%%%%%%%%%%%%%%%%%%%%%%%%%'
.NODIAG  ANOP                                                  @YL02021
         LINEND                                                @YL02021
&CTR     SETA  1                                               @YL02021
.LOOP    ANOP                                                  @YL02021
&NDX     SETA  &NDX+1                                          @YL02021
         AIF   (&LBLCTR(&CTR) NE &NDX).NOLBL                   @YL02021
&LBL(&CTR) DC  C'&LABELS(&NDX)'                                @YL02021
&CTR     SETA  &CTR+1                                          @YL02021
         AGO   .LOOPCTL                                        @YL02021
.NOLBL   ANOP                                                  @YL02021
         DC    C'&LABELS(&NDX)'                                @YL02021
.LOOPCTL AIF   (&NDX LT &LABELNR).LOOP                         @YL02021
         MEND                                                  @YL02021
         MACRO
         LINEND
.*                            THIS MACRO IS USED ONLY BY THE LINE
.*                                 MACRO TO SET THE NUMBER OF ENTRIES
.*                                 ASSOCIATED WITH EACH LINE.
         GBLA  &NRENTS
         GBLC &NRENTSX
         ORG   &NRENTSX
         DC    FL1'&NRENTS'
         ORG
&NRENTS  SETA  0
B&SYSNDX EQU   *
&NRENTSX SETC  'B&SYSNDX'
         MEND
         EJECT
         GBLC  &DSECT,&CSECT
&CSECT   SETC  'IFCE0165'
&DSECT   SETC  'INDEPEND'
IFCE0165 CSECT
         USING *,R9
*
INDEPEND DSECT
         DS    0F
         DSGEN (XKEY,8),(XRELN,8),(XSWS0,8),(XSWS8,1),                 C
               (XSWS9,1),(XSWS10,1),(ERRORID,1),                       X
               (XSWS12,1),(XSWS13,1),(XSWS14,1),(XSWS15,1)
         DSGEN (,32)
         DSGEN (XDATE,32)
         DSGEN (XTIME,32)
         DSGEN (XDUM2,8),(XSER,24)
         DSGEN (XCPUMOD,16),(XDUM3,16)
         DSGEN (XPGMID,64)
         ORG   XPGMID                                          @YL02021
         DSGEN (RECLNT,32),(WAITST,32)                         @YL02021
         DSGEN (XJOBID,64)
         DSGEN (XMCKPSW,64)
M165     DSGEN (SYSDAM,1),(PROCD,1),(SYSREC,1),(TIMDAM,1),(CLOCKD,1),  X
               (EXTDAM,1),(MDUM0,1),(AUTOCON,1),(WARNG,1),             X
               (MDUM1,5),(BACKUP1,1),(DELAY,1),(UNSTOR,1),             X
               (CORRST,1),(KEYERR,1),(MDUM2,1),(EMWP,1),               X
               (SYSMSK,1),(PGMSK,1),(IAVLD,1),(FASTVLD,1),             X
               (RCVLD,1),(MDUM3,1),(FLPVLD,1),(GPRVLD,1),              X
               (CTLVLD,1),(LOGVLD,1),(STVLD,1)
         DSGEN (LRBNVLD,1),(RESERVDA,15),(EXTDLOG,16)          @XA20224
         DSGEN (RESRVDB,64)
         DSGEN (MDUM4,8),(FAILSTA,24)
         DSGEN (RGNCODE,32)
         DSGEN (DUMMY1,32)              DUMMY
         DSGEN (MCAR,32)                MCAR
         DSGEN (MCDR1,32)               MCDR BITS 0-31
         DSGEN (MCDR2,32)               MCDR BITS 32-63
         DSGEN (MANTLTH1,32)            MAINT LATCH 0-31
         DSGEN (MANTLTH2,32)            MAINT LATCH 32-63
         DSGEN (MCRR1,32)               MCRR BITS 0-31
         DSGEN (MCRR2,32)               MCRR BITS 32-63
         DSGEN (ICM90,32)
         DSGEN (STATUS,32)
         DSGEN (FDUM1,32)
         DSGEN (FDUM2,32)
         DSGEN (FDUM3,32)
         DSGEN (FDUM4,32)
         DSGEN (FDUM5,32)
         DSGEN (FDUM6,32)
         DSGEN (FDUM7,32)
         DSGEN (FDUM8,32)
         DSGEN (FDUM9,32)
         DSGEN (FDUM10,32)
         DSGEN (FDUM11,32)
         DSGEN (FDUM12,32)
         DSGEN (FDUM13,32)
         DSGEN (FDUM14,32)
FLOATPTS DSGEN (FP0,32)
         DSGEN (FP1,32)
         DSGEN (FP2,32)
         DSGEN (FP3,32)
         DSGEN (FP4,32)
         DSGEN (FP5,32)
         DSGEN (FP6,32)
         DSGEN (FP7,32)
GENPURPR DSGEN (GPR0,32)
         DSGEN (GPR1,32)
         DSGEN (GPR2,32)
         DSGEN (GPR3,32)
         DSGEN (GPR4,32)
         DSGEN (GPR5,32)
         DSGEN (GPR6,32)
         DSGEN (GPR7,32)
         DSGEN (GPR8,32)
         DSGEN (GPR9,32)
         DSGEN (GP10,32)
         DSGEN (GP11,32)
         DSGEN (GP12,32)
         DSGEN (GP13,32)
         DSGEN (GP14,32)
         DSGEN (GP15,32)
         DSGEN (CTR0,32)
         DSGEN (CTR1,32)
         DSGEN (CTR2,32)
         DSGEN (CTR3,32)
         DSGEN (CTR4,32)
         DSGEN (CTR5,32)
         DSGEN (CTR6,32)
         DSGEN (CTR7,32)
         DSGEN (CTR8,32)
         DSGEN (CTR9,32)
         DSGEN (CR10,32)
         DSGEN (CR11,32)
         DSGEN (CR12,32)
         DSGEN (CR13,32)
         DSGEN (CR14,32)
         DSGEN (CR15,32)
         DSGEN (DUMMY7,8),(CHADR,24)
         DSGEN (CHNKEY,16),(CHNID,16)
         DSGEN (DUM1,8),(ADRARY0,16),(DUM2,8)
         DSGEN (VLD0,8),(DUM3,24)
         DSGEN (DUM4,8),(ADRARY1,16),(DUM5,8)
         DSGEN (VLD1,8),(DUM6,24)
         DSGEN (DUM7,8),(STAR,24)
         DSGEN (DUM8,8),(STARMK,8),(STARID,8),(DUM9,8)
         DSGEN (DUM10,8),(ADRARY2,16),(DUM11,8)
         DSGEN (VLD2,8),(DUM12,24)
         DSGEN (DUM13,8),(FAR,24)
         DSGEN (DUMA,8),(FARMK,8),(FARID,8),(DUMB,8)
         DSGEN (DUM14,8),(ADRARY3,16),(DUM15,8)
         DSGEN (VLD3,8),(DUM16,24)
         DSGEN (DUM17,8),(REDO,24)
         DSGEN (DUM18,16),(REDOID,8),(DUM19,8)
         DSGEN (DUM20,8),(BRPL,24)
         DSGEN (DUM21,32)
         DSGEN (DUM22,32)
         DSGEN (DUM23,32)
         DSGEN (DUM24,8),(DBAR,24)
         DSGEN (DUM25,32)
         DSGEN (DUM26,8),(BAR,24)
         DSGEN (DUM27,32)
         DSGEN (IBA0,32)
         DSGEN (IBA32,32)
         DSGEN (IBA64,32)
         DSGEN (IBA96,32)
         DSGEN (IBM0,32)
         DSGEN (IBM32,32)
         DSGEN (IBM64,32)
         DSGEN (IBM96,32)
         DSGEN (CHI0,32)
         DSGEN (CHI32,32)
         DSGEN (DUM28,32)
         DSGEN (L2REG,8),(DUM29,24)
         DSGEN (CHO0,32)
         DSGEN (CHO32,32)
         DSGEN (IREG,32)
         DSGEN (DUM30,16),(SHREG,16)
         DSGEN (SDBO0,32)
         DSGEN (SDBO32,32)
         DSGEN (IQ1,24),(DUM31,8)
         DSGEN (DUM32,16),(DSMP,16)
         DSGEN (IQ2,24),(DUM33,8)
         DSGEN (DUM34,8),(BASEREG,24)
         DSGEN (OP1REG0,32)
         DSGEN (OP1REG32,32)
         DSGEN (IQ3,24),(DUM35,8)
         DSGEN (DUM36,8),(INDXREG,24)
         DSGEN (OP2REG0,32)
         DSGEN (OP2REG32,32)
         DSGEN (AREG0,32)
         DSGEN (AREG32,32)
         DSGEN (DUM37,32)
         DSGEN (DUM38,8),(SRCREG,24)
         DSGEN (BREG0,32)
         DSGEN (BREG32,32)
         DSGEN (DUM39,32)
         DSGEN (DUM40,8),(DSTREG,24)
         DSGEN (CREG0,32)
         DSGEN (CREG32,32)
         DSGEN (DIFA,8),(DUM41,24)
         DSGEN (DUM42,8),(IARA,24)
         DSGEN (DREG0,32)
         DSGEN (DREG32,32)
         DSGEN (DIFB,8),(DUM43,24)
         DSGEN (DUM44,8),(IARB,24)
         DSGEN (EREG,16),(DUM45,16)
         DSGEN (DUM46,32)
         DSGEN (FREG0,32)
         DSGEN (FREG32,32)
         DSGEN (MY1REG6,32)
         DSGEN (MY1REG36,32)
         DSGEN (CSAR,16),(DUM47,16)
         DSGEN (DUM48,32)
         DSGEN (MY2REG6,32)
         DSGEN (MY2REG36,32)
         DSGEN (CSARA,16),(DUM49,8),(SLCSARA,8)
         DSGEN (DUM50,32)
         DSGEN (SUM26,32)
         DSGEN (SUM236,32)
         DSGEN (CSARB,16),(DUM51,8),(SLCSARB,8)
         DSGEN (DUM52,32)
         DSGEN (CARRY6,32)
         DSGEN (CARRY36,32)
         DSGEN (SPAR1,16),(DUM53,8),(SPAR20,8)
         DSGEN (SPAR24,8),(DUM54,24)
         DSGEN (MCRR0,32)
         DSGEN (MCRR32,32)
         DSGEN (IC,32)
         DSGEN (MCER,8),(DUM55,24)
         DSGEN (MCDR0,32)
         DSGEN (MCDR32,32)
         DSGEN (MCAR0,32)
         DSGEN (MRAR0,32)
         DSGEN (DUM56,1),(CHADRP,3),(CHKEYP,1),(CHMARKP,1),            C
               (DUM57,3),(ADRARY0P,2),(DUM58,6),(ADRARY1P,2),          C
               (DMY21,5),(STARP,4),(DMY22,1),(STARMKP,1),(DMY23,2)
         DSGEN (DMY24,1),(ADRARY2P,2),(DMY25,5),(FARP,4),              C
               (DMY26,1),(FARMKP,1),(DUMZ,3),                          C
               (ADRARY3P,2),(DMY27,5),                                 C
               (REDOP,4),(DMY28,4)
         DSGEN (BRPLP,4),(DMY29,12),(DBARP,4),(DMY30,4),               C
               (BARP,4),(DMY31,4)
         DSGEN (IBAP,16),(IBMP,16)
         DSGEN (CHIDATP,8),(DMY32,4),(L2P,1),(DMY33,3),(CHODATP,8),    C
               (IREGP,4),(DMY34,2),(SHREGP,2)
         DSGEN (SDBOP,8),(IQ1P,3),(DMY35,3),(DSPMP,2),                 C
               (IQ2P,3),(DMY36,1),(BASEREGP,4),(OP1REGP,8)
         DSGEN (IQ3P,3),(DMY37,1),(INDXREGP,4),(OP2REGP,8),            C
               (AREGP,8),(DMY38,4),(SRCREGP,4)
         DSGEN (BREGP,8),(DMY39,4),(DSTREGP,4),(CREGP,8),              C
               (DIFAP,1),(DMY40,3),(IARAP,4)
         DSGEN (DREGP,8),(DIFBP,1),(DMY41,3),(IARBP,4),                C
               (EREGP,2),(DMY42,6),(FREGP,8)
         DSGEN (DMY43,32)
         DSGEN (DMY44,32)
         DSGEN (MCRRP,8),(ICP,4),(MCERP,1),(DMY45,3),                  C
               (MCDRP,8),(MCARP,8)
SOFTEND  DS    0C
IFCE0165 CSECT
***********************************************************************
ENTRYPTR DC    A(FORMAT1)
TABLNAME DC    CL8'IFCE0165'
REG9     DS    F
SAVE     DS    F
***
*              ***     SPECIAL ROUTINES AREA     ***
*
***********************************************************************
*
SETJOBN  MVC   L0(L8,R3),L0(R4)         MOVE JOB NAME
         BR    R14                      RETURN
*
SPACER2  LA    R3,L2(R3)                BUMP R3 PTR BY 2
         BR    R14
*
*
CONVREL  STM   R5,R8,XSAVE              SAVE WORK REGS
         SR    R6,R6                    CLEAR R6
         IC    R6,L0(R4)                PICK UP REL & SYS VALUES
         SRDL  R6,L5                    SAVE REL NO IN R7
        SLL   R6,L2                    MULTIPLY SYS VALUE BY 4
         L     R8,XLABELP               PICK UP LABEL POINTER
         LA    R6,RELTAB(R6)            INDEX INTO TABLE OF SYSTEMS
         MVC   L0(L4,R8),L0(R6)         MOVE SYSTEM NAME INTO LABEL
         SR    R6,R6                    CLEAR R6
         SLDL  R6,L5                    RETREIVE REL NO.
         LTR   R6,R6                    IS IT ZERO
         BZ    NOREL                    BR-YES
         CVD   R6,WORK                  CONVERT IT
         UNPK  L0(L2,R3),WORK+L6(L2)    UNPACK IT INTO PRINT BUFF
         MVZ   L1(L1,R3),L0(R3)         MOVE ON PROPER ZONE
         B     RETURNA                  EXIT
NOREL    MVC   L0(L4,R3),NONE           MOVE IN NONE FOR REL
RETURNA  LM    R5,R8,XSAVE              RESTORE REGS
         BR    R14                      RETURN
*
CHKSW9   TM    L1(R4),HEX40             TEST SWITCHES
CHECKCC  BZ    NOPRT                    IF SWITCHES OFF
         BR    R14                      DONOT PRINT
CHKSW10  TM    L1(R4),HEX20             R15 RETURNED ZERO
         B     CHECKCC                  STOPS PRINTING
CHKSW11  TM    L1(R4),HEX10
         B     CHECKCC
CHKSW12  TM    L1(R4),HEX08
         B     CHECKCC
CHKSW13  TM    L1(R4),HEX04
         B     CHECKCC
CHKSW14  TM    L1(R4),HEX02
         B     CHECKCC
CHKSW15  TM    L1(R4),HEX01
         B     CHECKCC
NOPRT    SR    R15,R15
         BR    R14
*
SETDATE  UNPK  XWORK(L8),L0(L4,R4)      UNPACK DATE               P0415
         MVZ   XWORK+L7(L1),XWORK       SET ZONE
         MVC   L0(L3,R3),XWORK+L5       MOVE DAY
         MVC   L6(L2,R3),XWORK+L3       MOVE YEAR                 P0415
         BR    R14                      RETURN
*
CONVTIME TM    L0(R4),HEX48             TEST FOR NS/BIN CLOCK
         BZ    RETURNB                  ALL ZEROS-BIN CLOCK
         BO    RETURNB                  ALL ONES-ILLEGAL
         TM    L0(R4),HEX40             IF ON IS N/S CLOCK
         BO    NSCLOCK                  IF OFF TIME OK
RETURNB  BR    R14                      RETURN
NOID     TM    0(R4),X'10'         ERRORID PRESENT?            @G17EFFR
         BNOR  R14                 NO, PRT MSG                 @G17EFFR