*  DSGEN MACRO     DSGEN MACRO     DSGEN MACRO     DSGEN MACRO        *
         SPACE 2
         MACRO
&NAME    DSGEN &X1,&X2,&X3,&X4,&X5,&X6,&X7,&X8,&X9,&X10,&X11,&X12,&X13,X
               &X14,&X15,&X16,&X17,&X18,&X19,&X20,&X21,&X22,&X23,&X24, X
               &X25,&X26,&X27,&X28,&X29,&X30,&X31,&X32
.*                            THIS MACRO GENERATES ONE DSECT WORD
.*                                 FORMATTED FOR THE SUBJECT LOG RECORD
.*                                 EACH OPERAND HAS TWO SUB LISTS. THE
.*                                 FIRST IS THE NAME OF THE LOG ITEM
.*                                 WHILE THE SECOND IS THE # OF BITS TO
.*                                 ALLOCATE FOR THIS ITEM. ITEMS MUST
.*                                 BE DEFINED CONTIGUOUSLY WITHOUT GAPS
.*                                 UNUSED BIT GROUPS MUST BE GIVEN
.*                                 DUMMY NAMES. THE NAMES PROVIDED FOR
.*                                 THE LOG ITEMS MAY THEN BE USED IN
.*                                 THE CONVERSION MACRO INSTRUCTIONS.
         GBLC &ITEM(1000)
         GBLA &ITEMNBR,&BITS(1000),&SHIFT(1000)
         LCLC  &SYMBOL
         LCLA  &OP,&COUNT,&BYTE
.LOOP    ANOP
&OP      SETA  &OP+1
&ITEMNBR SETA  &ITEMNBR+1
&SYMBOL  SETC  '&SYSLIST(&OP,1)'
         AIF   ('&SYSLIST(&OP,2)' NE '').OK1
         MNOTE *,'NULL BIT COUNT FIELD'
         MEXIT
.OK1     ANOP
         AIF   ('&SYMBOL' NE '').OK
         MNOTE 'LOG ITEM SYMBOL NOT PROVIDED'
         AGO   .CNT
.OK      ANOP
         AIF   ('&SYMBOL'(1,1) EQ '''').CNT                *TEMP*
&SYMBOL  EQU   *+&BYTE
&ITEM(&ITEMNBR)  SETC '&SYSLIST(&OP,1)'
&BITS(&ITEMNBR) SETA &SYSLIST(&OP,2)
&SHIFT(&ITEMNBR) SETA &COUNT-&BYTE*8
.CNT     ANOP
&COUNT   SETA  &COUNT+&SYSLIST(&OP,2)
&BYTE    SETA  &COUNT/8
         AIF (&OP LT N'&SYSLIST).LOOP
         AIF   (&COUNT NE 32).NOT32
&NAME    DS    4C
         MEXIT
.NOT32   AIF   (&COUNT NE 64).ERR
&NAME    DS    8C
         MEXIT
.ERR     MNOTE '**BIT COUNT FIELDS DO NOT TOTAL 32 OR 64**'
         MEND
         EJECT
*  LINE MACRO     LINE MACRO     LINE MACRO     LINE MACRO            *
         SPACE 2
         MACRO
&NAME    LINE  &DATA,&LABEL,&SKIP=
.*                            THIS MACRO ESTABLISHES THE MARGINS OR
.*                                 COLUMN SETTINGS FOR EACH LINE. IT
.*                                 GENERATES NECESSARY CARRIAGE CONTROL
.*                                 ENTRIES. LASTLY IT DETERMINES THE
.*                                 NUMBER OF ENTRIES ASSOCIATED WITH
.*                                 THE PREVIOUS LINE AND STORES THAT #
.*                                 INTO THE APPROPRIATE BYTE.
.*                            &DATA(1) - CHARACTER POSITION TO BEGIN
.*                                 DATA.
.*                            &DATA(2) - # OF SPACES BETWEEN SUCCESSIVE
.*                                 DATA COLUMN STARTING CHARACTERS.
.*                            &LABEL(1) - CHAR. POS. TO BEGIN LABELS.
.*                            &LABEL(2) - # SPACES BETWEEN LINE'S LABEL
.*                                 STARTING CHARACTERS.
.*                            &SKIP= - # OF LINES TO ADVANCE CARRIAGE
.*                                 TO BEGIN NEXT PRINTED LINE.
.*                            NEW ENTRIES ARE GENERATED ONLY WHEN
.*                                 NECESSARY. OMISSION OF ITEMS MEANS
.*                                 THEY HAVE NOT CHANGED SINCE PREVIOUS
.*                                 SETTINGS. A LINE MACRO IS REQUIRED
.*                                 FOR EACH PRINTED LINE. IF NO SETTING
.*                                 CHANGES ARE REQUIRED ALL OPERANDS
.*                                 ARE OMITTED IN WHICH CASE ONLY THE
.*                                 # OF ENTRIES FOR THE PREVIOUS LINE
.*                                 IS COMPUTED. THIS MACRO MUST BE THE
.*                                 FIRST MACRO INSTRUCTION ISSUED FOR
.*                                 THE SUBJECT LINE
         GBLA  &DB,&DT,&LB,&LT,&NRENTS
         GBLA  &LASTCC,&INITIAL
         GBLC  &NRENTSX
         GBLC  &CARRCON
         GBLB  &TEST
         LCLA  &S
&NAME    DS    0C
         AIF   (&INITIAL EQ 0).FIRSTLN
         LINEND
         AGO   .NTFIRST
.FIRSTLN ANOP
&NRENTSX SETC  'N&SYSNDX'
&INITIAL SETA  1
N&SYSNDX EQU   *
.NTFIRST ANOP
         DC    AL1(0)
         AIF   ('&DATA(1)' EQ '').CKDTABS
         AIF   (&DATA(1) EQ &DB).CKDTABS
&DB      SETA  &DATA(1)
         AGO   .AA
.CKDTABS AIF   ('&DATA(2)' EQ '').NCDATA
         AIF   (&DATA(2) EQ &DT).NCDATA
         AGO   .CC
.AA      AIF   ('&DATA(2)' EQ '').BB
         AIF   (&DATA(2) EQ &DT).BB
.CC      ANOP
&DT      SETA  &DATA(2)
.BB      DC    XL2'FFFE'
         DC    FL1'&DB'
         DC    FL1'&DT'
&NRENTS  SETA  &NRENTS+1
.NCDATA  ANOP
         AIF   ('&LABEL(1)' EQ '').CKLTABS
         AIF   (&LABEL(1) EQ &LB).CKLTABS
&LB      SETA  &LABEL(1)
         AGO   .AAA
.CKLTABS AIF   ('&LABEL(2)' EQ '').NCLABEL
         AIF   (&LABEL(2) EQ &LT).NCLABEL
         AGO   .CCC
.AAA     AIF   ('&LABEL(2)' EQ '').BBB
         AIF   (&LABEL(2) EQ &LT).BBB
.CCC     ANOP
&LT      SETA  &LABEL(2)
.BBB     DC    XL2'FFFF'
         DC    FL1'&LB'
         DC    FL1'&LT'
&NRENTS  SETA  &NRENTS+1
.NCLABEL ANOP
         AIF   ('&SKIP' NE '').CONT
         AIF   (&TEST EQ 0).NOCHANG
&S       SETA  &LASTCC
         AGO   .DEFAULT
.CONT    ANOP
         AIF   (&TEST EQ 0).AB
&S       SETA  &SKIP
.DEFAULT ANOP
         ORG   &CARRCON+3
         DC    AL.3(0),AL.2(&S),AL.3(1)
         ORG
&LASTCC  SETA  &S
&TEST    SETB  0
         AGO   .DD
.AB      AIF   (&SKIP EQ &LASTCC).NOCHANG
A&SYSNDX DC    XL2'FFFB'
         DC    AL.3(0),AL.2(&SKIP),AL.3(1)
         DC    FL1'9'
&LASTCC  SETA  &SKIP
&TEST    SETB  1
&CARRCON SETC  'A&SYSNDX'
&NRENTS  SETA  &NRENTS+1
.DD      ANOP
.NOCHANG ANOP
         MEND
         EJECT
*  BIN MACRO     BIN MACRO     BIN MACRO     BIN MACRO     BIN MACRO  *
         SPACE 2
         MACRO
         BIN   &LOGITEM,&SKIP$OR
.*                                 &LOGITEM - NAME OF ITEM IN LOG
.*                                      RECORD DSECT
.*                                 &SKIP$OR - NBR OF SPACES TO SKIP ON
.*                                 MULTIPLE PRINT OR NBR OF SPACES
.*                                      TO BACK UP FROM COLUMN FOR
.*                                      START OF PRINTING. THE LETTER
.*                                      B PRECEEDS THE NUMBER (B5) IF
.*                                      THE LATTER IS DESIRED. OMISSION
.*                                      OF THIS OPERAND FORCES OPTION 2
.*                                      WITH BACKUP SPACING EQUAL TO
.*                                 THE NUMBER OF BITS IN THE ITEM
.*                                 DEFINITION (VIA MACRO 'DSGEN').
.*                            A LIMIT OF 15 BITS IS IMPOSED FOR THE
.*                                 TOTAL NUMBER OF BITS TO PRINT.
         GBLC &ITEM(1000)
         GBLA &ITEMNBR,&BITS(1000),&SHIFT(1000),&NRENTS
         GBLC  &DSECT
         LCLB  &B
         LCLA  &IBITS,&NDX,&ISHIFT,&K
         LCLA  &TEMP,&T
         LCLC  &S
.LOOP    ANOP
&NDX     SETA  &NDX+1
         AIF   ('&ITEM(&NDX)' EQ '&LOGITEM').FOUND
         AIF   (&NDX LT &ITEMNBR).LOOP
         MNOTE *,'YOU BLEW IT'
         ROUTINE DUM,SKIPPER
         MEXIT
.FOUND   ANOP
&ISHIFT  SETA  &SHIFT(&NDX)
&IBITS   SETA  &BITS(&NDX)
&T       SETA  &IBITS-1
&B       SETB  0
         AIF   ('&SKIP$OR' EQ '').BACKUP
&K       SETA  K'&SKIP$OR
&B       SETB  ('&SKIP$OR'(1,1) EQ 'B')
&S       SETC  '&SKIP$OR'(&B+1,&K-&B)
&T       SETA  &S
.BACKUP  ANOP
&NRENTS  SETA  &NRENTS+1
&TEMP    SETA  &ISHIFT
A&SYSNDX DC    AL.12(&LOGITEM-&DSECT),XL.4'&TEMP'
         AIF (&IBITS EQ 1 AND &B EQ 0).OUT
         ORG   A&SYSNDX
&B       SETB  1
         DC    AL.12(&LOGITEM-&DSECT),XL.4'C'
         DC    BL.1'&B',AL.7(&T),AL.4(&IBITS),FL.4'&ISHIFT'
.OUT     ANOP
         MEND
         EJECT
*  HEX MACRO     HEX MACRO     HEX MACRO    HEXN MACRO     HEX MACRO  *
         SPACE 2
         MACRO
         HEX   &LOGITEM,&SKIP$OR,&BYTES
.*                            THIS MACRO FACILITATES GENERATION OF THE
.*                                 TABLE ENTRIES SPECIFYING HEX TYPE
.*                                 CONVERSIONS.
.*                            &LOGITEM - NAME OF DATA ITEM TO BE
.*                                 CONVERTED
.*                            &SKIP$OR - NUMBER OF SPACES TO SKIP ON
.*                                 MULTIPLE PRINT OR NBR OF SPACES TO
.*                                 BACK UP FROM COLUMN FOR START OF
.*                                 PRINTING. THE LETTER B PRECEEDS THE
.*                                 NUMBER (B8) IF THE LATTER OPTION IS
.*                                 DESIRED. OMISSION OF THIS OPERAND
.*                                 FORCES OPTION 2 WITH BACKUP SPACING
.*                                 EQUAL TO THE NUMBER OF BYTES SPECI-
.*                                 FIED BY THE NEXT OPERAND (TWICE THIS
.*                                 NUMBER IF SUFFIX IS EXPLICITLY OR
.*                                 IMPLICITLY B).
.*                            &BYTES - NUMBER OF TOTAL INPUT BYTES TO
.*                                 PROCESS. THIS NUMBER IS SUFFIXED
.*                                 WITH AN L,R, OR B TO STIPULATE
.*                                 PRINTING OF THE LEFT HALF, RIGHT
.*                                 HALF, OR BOTH HALVES OF THE BYTE
.*                                 RESPECTIVELY. OMISSION OF THIS
.*                                 OPERAND DEFAULTS TO B WITH THE NUM-
.*                                 BER OF BYTES EQUAL TO THE ITEM LNGTH
.*                            A NEW ENTRY IS GENERATED ONLY WHEN NECES-
.*                                 SARY. THIS MACRO MUST BE THE FIRST
.*                                 MACRO INSTRUCTION ISSUED FOR THE
.*                                 SUBJECT LINE(S).
         GBLC &ITEM(1000),&DSECT
         GBLA &ITEMNBR,&BITS(1000),&SHIFT(1000),&NRENTS
         LCLB  &B
         LCLA  &IBITS,&NDX,&ISHIFT,&K,&T,&CODE,&BYTESP
         LCLC  &S,&LETTER
.LOOP    ANOP
&NDX     SETA  &NDX+1
         AIF   ('&ITEM(&NDX)' EQ '&LOGITEM').FOUND
         AIF   (&NDX LT &ITEMNBR).LOOP
         MNOTE *,'LOG ITEM NOT DEFINED'
         MEXIT
.FOUND   ANOP
&ISHIFT  SETA  &SHIFT(&NDX)
&IBITS   SETA  &BITS(&NDX)
&CODE    SETA  1
&K       SETA  K'&BYTES
         AIF   (&IBITS-(&IBITS/4)*4 EQ 0).OK
         MNOTE *,'BIT LENGTH SPECIFICATION INCONSISTENT WITH CONTROL'
         MEXIT
.OK      AIF   ('&BYTES' EQ '').USEDEFN
&LETTER  SETC  '&BYTES'(&K,1)
&S       SETC  '&BYTES'(1,&K-1)
&BYTESP  SETA  &S
         AIF   ('&LETTER' EQ 'B').BOTH
         AIF   (&ISHIFT EQ 0 OR &ISHIFT EQ 4).OK2
.ERR     MNOTE *,'DATA NOT ALLIGNED ON HEX OR BYTE BOUNDARY'
         MEXIT
.USEDEFN ANOP
&BYTESP  SETA  &IBITS/8
.BOTH    AIF   (&ISHIFT NE 0).ERR
&CODE    SETA  3
&T       SETA  &BYTESP*2-1
&S       SETC  '&T'
.OK2     AIF   (&ISHIFT EQ 0).L
&CODE    SETA  2
.L       ANOP
&B       SETB  1
         AIF   ('&SKIP$OR' EQ '').BACKUP
&K       SETA  K'&SKIP$OR
&B       SETB  ('&SKIP$OR'(1,1) EQ 'B')
&S       SETC  '&SKIP$OR'(&B+1,&K-&B)
.BACKUP  ANOP
&NRENTS  SETA  &NRENTS+1
         DC    AL.12(&LOGITEM-&DSECT),XL.4'A'
         DC    BL.1'&B',FL.7'&S',FL.4'&BYTESP',FL.4'&CODE'
.OUT     ANOP
         MEND
         SPACE 2
*  ROUTINE MACRO     ROUTINE MACRO     ROUTINE MACRO     ROUTINE MACRO*
         SPACE 2
         MACRO
&NAME    ROUTINE &LOGITEM,&RNAME
         GBLC  &DSECT,&CSECT
         GBLC  &ITEM(1000)
         GBLA  &SHIFT(1000),&ITEMNBR
         GBLA  &NRENTS
         LCLA  &ISHIFT,&NDX
.LOOP    ANOP
&NDX     SETA  &NDX+1
         AIF   ('&ITEM(&NDX)' EQ '&LOGITEM').FOUND
         AIF   (&NDX LT &ITEMNBR).LOOP
         MNOTE *,'LOG ITEM NOT DEFINED'
         MEXIT
.FOUND   ANOP
&ISHIFT  SETA  &SHIFT(&NDX)
&NAME    DC    AL.12(&LOGITEM-&DSECT),XL.4'D'
         DC    AL.4(&ISHIFT),AL.12(&RNAME-&CSECT)
&NRENTS  SETA  &NRENTS+1
         MEND
         EJECT
*  LABEL MACRO     LABEL MACRO     LABEL MACRO     LABEL MACRO        *
         SPACE 2
         MACRO
&NAME    LABEL &LABEL1,&LABEL2,&LABEL3,&LABEL4,&LABEL5,&LABEL6,        C
               &LABEL7,&LABEL8
.*                            THIS MACRO ALLOWS UP TO ACHT LABELS TO
.*                                 BE SPECIFIED FOR A GIVEN LINE. THE
.*                                 LABELS SHOULD BE ENCLOSED IN QUOTA-
.*                                 TION MARKS. THE COLUMN AND LINE END
.*                                 CONTROLS WILL BE INSERTED BY THE
.*                                 MACRO. OMITTED OPERANDS MEAN NO
.*                                 LABEL REQUIRED FOR RESPECTIVE
.*                                 COLUMN. THIS MACRO WILL ALSO ALERT
.*                                 THE PROGRAMMER TO EXACTLY WHERE THE
.*                                 TABLE MUST BE BROKEN IF NECESSARY
.*                                 TO AVOID EXCEEDING THE MAXIMUM LIMIT
         GBLC &LABELS(2000)
         GBLC  &LBL(100)
         GBLA  &LBLCTR(100)
         GBLA  &LABELNR
         GBLA  &NRENTS,&LPTR
         LCLC  &MARGIN,&TACK
         LCLC  &TEXT
         LCLA  &OP,&K,&START,&NRCHAR,&REMAIN
&MARGIN  SETC  '*'
         AIF   ('&NAME' EQ '').LOOPOUT
&LPTR    SETA  &LPTR+1
&LBL(&LPTR) SETC '&NAME'
&LBLCTR(&LPTR) SETA &LABELNR+1
.LOOPOUT ANOP
&OP      SETA  &OP+1
&K       SETA  K'&SYSLIST(&OP)
         AIF (&K GE 2).NORM
&K       SETA  2
.NORM    ANOP
&START   SETA  2
         AIF (&OP LT N'&SYSLIST).NOTLAST
&MARGIN  SETC  '$'
.NOTLAST ANOP
&NRCHAR  SETA  8
&TACK    SETC  ''
.LOOPIN  ANOP
&REMAIN  SETA  &K-&START
         AIF (&REMAIN GE 8).MORE
&TACK    SETC  '&MARGIN'
&NRCHAR  SETA  &REMAIN
.MORE    ANOP
&TEXT    SETC  ''
         AIF (&REMAIN EQ 0).ENDTEXT
&TEXT    SETC  '&SYSLIST(&OP)'(&START,&NRCHAR)
.ENDTEXT ANOP
&LABELNR SETA  &LABELNR+1
&LABELS(&LABELNR) SETC '&TEXT'.'&TACK'
&START   SETA  &START+8
         AIF ('&TACK' EQ '').LOOPIN
         AIF ('&TACK' EQ '*').LOOPOUT
         MEND
         SPACE 2
         MACRO
         LSTART
.*                            THIS MACRO IS ISSUED WHEN THE LABEL AREA
.*                                 OF THE TABLE IS TO BEGIN.
         GBLC &LABELS(2000)
         GBLA  &LABELNR
         GBLC  &LBL(100)
         GBLA  &LBLCTR(100)
         LCLA  &NDX,&CTR
         LINEND
&CTR     SETA  1
.LOOP    ANOP
&NDX     SETA  &NDX+1
         AIF   (&LBLCTR(&CTR) NE &NDX).NOLBL
&LBL(&CTR) DC  C'&LABELS(&NDX)'
&CTR     SETA  &CTR+1
         AGO   .LOOPCTL
.NOLBL   ANOP
         DC    C'&LABELS(&NDX)'
.LOOPCTL AIF   (&NDX LT &LABELNR).LOOP
         MEND
         SPACE 2
         MACRO
         LINEND
.*                            THIS MACRO IS USED ONLY BY THE LINE
.*                                 MACRO TO SET THE NUMBER OF ENTRIES
.*                                 ASSOCIATED WITH EACH LINE.
         GBLA  &NRENTS
         GBLC &NRENTSX
         ORG   &NRENTSX
         DC    FL1'&NRENTS'
         ORG
&NRENTS  SETA  0
B&SYSNDX EQU   *
&NRENTSX SETC  'B&SYSNDX'
         MEND
         GBLC  &DSECT,&CSECT
&DSECT   SETC  'B2715'
&CSECT   SETC  'IFCET008'
         TITLE 'IFCET008 - EDIT MODULE- LINKNAME=IFCET008'
*
IFCET008 CSECT
*
*              2715  EDIT & PRINT SECTION
*
         USING *,R9,R15
*
*              DSECT FOR TABLE
*
B2715E   DSECT
         DSGEN (BTIMES,56),                                            C
               (B0BIT0,1),(B0BIT1,1),(B0BIT2,1),(B0BIT3,1),            C
               (B0BIT4,1),(B0BIT5,1),(B0BIT6,1),(B0BIT7,1)
         DSGEN (B1BIT0,1),(B1BIT1,1),(B1BIT2,1),(B1BIT3,1),            C
               (B1BIT4,1),(B1BIT5,1),(B1BIT6,1),(B1BIT7,1),            C
               (B2BIT0,1),(B2BIT1,1),(B2BIT2,1),(B2BIT3,1),            C
               (B2BIT4,1),(B2BIT5,1),(B2BIT6,1),(B2BIT7,1),            C
               (B3BIT0,1),(B3BIT1,1),(B3BIT2,1),(B3BIT3,1),            C
               (B3BIT4,1),(B3BIT5,1),(B3BIT6,1),(B3BIT7,1),(BDUM,8)
*
*              DSECT FOR RECORD
*
B2715    DSECT
         DSGEN (KEY,8),(XRELN,8),(TSWS,16),(TID,8),(TDUM1,16),         C
               (TCHAR,8)
         DSGEN (DATE,32),(TIME,32)
         DSGEN (TDUM2,8),(TSER,24),(TMOD,16),(TDUM3,16)
         DSGEN (TCUA,16),(TSID,16)
*
*              HEADER CONSTENTS
*
IFCET008 CSECT
         DC    A(EDIT)             PTR TO EDIT ENTRIES
         DC    CL8'IFCET008'
R9PTR    DC    F'0'                CURRENT ENTRY PTR
LABELPTR DC    F'0'                CURRENT LABEL PTR
*
*
*
         EJECT
*
*
*              SPECIAL ROUTINES
*
*
*
*
CONVREL  STM   R14,R12,L12(R13)         SAVE REGS
         SR    R6,R6                    CLEAR R6
         IC    R6,L0(R4)                PICK UP REL & SYS VALUES
         SRDL  R6,L5                    SAVE REL NO IN R7
        SLL   R6,L2                    MULTIPLY SYS VALUE BY 4
         L     R8,XLABELP               PICK UP LABEL POINTER
         LA    R6,RELTAB(R6)            INDEX INTO TABLE OF SYSTEMS
         MVC   L0(L4,R8),L0(R6)         MOVE SYSTEM NAME INTO LABEL
         SR    R6,R6                    CLEAR R6
         SLDL  R6,L5                    RETREIVE REL NO.
         LTR   R6,R6                    IS IT ZERO
         BZ    NOREL                    BR-YES
         CVD   R6,WORK                  CONVERT IT
         UNPK  L0(L2,R3),WORK+L6(L2)    UNPACK IT INTO PRINT BUFF
         MVZ   L1(L1,R3),L0(R3)         MOVE ON PROPER ZONE
         B     RETURN                   EXIT
NOREL    MVC   L0(L4,R3),NONE           MOVE IN NONE FOR REL
         B     RETURN
LOOPER   STM   R14,R12,L12(R13)        SAVE REGS
         LA    R15,4095(R9)              SET SECOND BASE REG
         LA    R15,L1(R15)
         CLI   L11(R2),HEXFF       TABLE DONE
         BE    DONE                BR-YES
         AH    R2,H11              BUMP TO NXT SLOT
         ST    R2,L28(R13)              STORE NEW POINTER
         CLI   L7(R2),HEX80        IS THIS AREA STATIONS
         BL    REGULAR             BR-NO
         CLI   SWITCH,HEXFF        HAS HDR BEEN PUT OUT
         BE    AREASTNS            YES
         LA    R5,AREASTHD-L4
         LA    R6,AREASTLB         SET PTRS TO PUT OUT HEADER
LPRTN    STM   R5,R6,R9PTR
         B     RETURN
DONE     LA    R5,LOOPERST         SET PTRS
         LA    R6,LOOPERL          TO END  EDIT
         B     LPRTN
AREASTNS LA    R5,AREASTA-L4
         LA    R6,AREASTAL
         B     LPRTN
REGULAR  CLI   L7(R2),HEX70        TEST CODE 70
         BL    REGULAR1            BN
         LA    R5,SPECERR-L4       SET PTRS
         LA    R6,SPECERRL         TO SPECIAL
         B     LPRTN
REGULAR1 SR    R7,R7
         IC    R7,L7(R2)           PICK UP CODE
         SRL   R7,L4               DROP OFF LOW BITS
         CH    R7,H5
         BH    REG6                DETERINE
         BE    REG5
         CH    R7,H3               ENTRY
         BH    REG4
         BE    REG3                TYPE
         CH    R7,H1
         BH    REG2
         BE    REG1
REG0     LA    R5,DISKADPT-L4
         LA    R6,DISKLB
         B     LPRTN
REG1     LA    R5,D2790ADP-L4
         LA    R6,D2790L
         B     LPRTN
REG2     LA    R5,MPXADPT-L4
         LA    R6,MPXADPL
         B     LPRTN
REG3     LA    R5,ADPT2740-L4
         LA    R6,ADP2740L
         B     LPRTN
REG4     LA    R5,BSCADPT-L4
         LA    R6,BSCADPL
         B     LPRTN
REG5     EQU   *
REG6     EQU   *
         LA    R5,UKNO-4
         LA    R6,UKNOL
         B     LPRTN
         DROP  R15
*
*
*
SETR2    ST    R2,SAVE2       SAVE R2
         LA    R2,ENTRIES-L11           LOAD TBL PTR - 1 ENTRY
         STM   R14,R12,L12(R13)
         L     R3,SAVE2
         USING B2715,R3
         IC    R7,TCUA             PICK
         SLL   R7,L8               UP
         IC    R7,TCUA+L1          CUA
         SLL   R7,L16
         LA    R4,CUAFLD           SET PTR TO SAVE
         BAL   R8,SETUP
         IC    R7,TSID
         SLL   R7,L8               PICK UP
         IC    R7,TSID+L1          ID
         SLL   R7,L16
         LA    R4,IDFLD
         LA    R8,RETURN
SETUP    LA    R5,L4
SETUP1   SR    R6,R6
         SLDL  R6,L4                    MOVE 4 BITS
         LA    R2,CHARS(R6)             INDEX CHAR
         MVC   L0(L1,R4),L0(R2)         MOVE IT TO FLO
         LA    R4,L1(R4)                BUMP PTR
         BCT   R5,SETUP1                LOOP
         BR    R8
*
*
*
RESETR2  L     R2,SAVE2            RESET R2
         STM   R14,R12,L12(R13)
         SH    R2,H2
         MVC   SIZE(L2),L0(R2)     SET UP SIZE OF REC FROM REC BUFF
         XC    SWITCH(L1),SWITCH       CLEAR SWITCH
         B     RETURN
*
*
*        GATHER DATA RECORDS AND PUT INTO TABLE
*               TABLE ENTRY  42 MAY ENTRIES
*             *********************************************************
*             * DAY * DAY * DAY * TME * TME * TME * TME * 4 BYTES DATA*
*             *********************************************************
*
SETTABLE STM   R14,R12,L12(R13)         SAVE INPUT REGS
         LR    R5,R2                    SET REC PTR TO SIZE OF INPUT
         SH    R5,H2                    BY BACKING OFF 2 BYTES
         LH    R5,L0(R5)                PICK UP RECORD SIZE
         SH    R5,H26                   DEC BY NUMBER OF HDR BYTES
         SR    R4,R4
         D     R4,F35                   DIVIDE TO GET NUMBER OF 35BYTE
*                                       ENTRIES IN R5
         LA    R4,L28(R2)               SET R4 TO ERROR ENTRIES
         LA    R6,ENTRIES               SET R6 TO TABLE
         MVI   L0(R6),HEXFF             SET ENTRIES AREA TO FFFF
         MVC   L1(L249,R6),L0(R6)
         MVC   L250(L214,R6),L0(R6)
*
         LTR   R5,R5                    DONE
         BZ    RETURN                   BR IF ZERO
SETTBL01 MVC   DAYTIME(L7),L0(R4)       SET UP DAYTIME
         LA    R4,L7(R4)                BUMP OVER DAY TIME
         LA    R8,L7                    SET ERROR COUNT
*
*
SETTBL02 CLC   L0(L4,R4),CHARFF         IS ENTRY DUMMY
         BE    SETTBL03                 BR-YES
         CLC   L0(L4,R4),CHAR00         DUMMY ENTRY
         BE    SETTBL03                 BR YES
         MVC   L0(L7,R6),DAYTIME        SET UP ENTRY DAY-TIME
         MVC   L7(L4,R6),L0(R4)                      4 BYTE ENTRY
         LA    R6,L11(R6)               BUMP
SETTBL03 LA    R4,L4(R4)                    PTRS
         BCT   R8,SETTBL02              LOOP 7 TIMES
*
*
         BCT   R5,SETTBL01              LOOP TILL ALL 42 ENTRIES DONE
*              TABLE NOW TO BE  SORTED
*              R6=PTR TO LAST ENTRY+11 PTRB
         LA    R4,ENTRIES-L11           SET PTR A
*
SORTTBL1 LA    R4,L11(R4)               UP PTRA BY 11
         LA    R5,L11(R4)               UP PTRC TO PTR A+11
         CR    R4,R6                    IS PTRA=PTRB(R6)
         BE    RETURN                   YES SORT DONE
SORTTBL2 CLC   L7(L1,R4),L7(R5)         COMPARE ENTRIES  *  DDDTTTTID
         BL    SORTTBL3                 NO SWAP NEEDED
         BH    SWAP                     SWAP DATES & DATA
         CLC   L0(L7,R4),L0(R5)         TEST DATES ON EQUAL RECS
         BNH   SORTTBL3                 NO NEED TO SWAP
SWAP     EQU   *
         XC    L0(L11,R4),L0(R5)
         XC    L0(L11,R5),L0(R4)        SWAP ENTRIES
         XC    L0(L11,R4),L0(R5)
SORTTBL3 LA    R5,L11(R5)               BUMP PTR TO NXT ENTRY
         CR    R5,R6                    THIS PASS DONE
         BL    SORTTBL2                 BR-NO
         B     SORTTBL1                 BR-YES
*
*
RETURN   LM    R14,R12,L12(R13)
SKIPPER  BR    R14
*
*
SETHEAD  STM   R14,R12,L12(R13)
         MVC   L30(L30,R3),HDR               MOVE PRESET HDR
         MVC   L64(L3,R3),DAY                MOVE DAY LABEL
         MVC   L79(L4,R3),TIMES                   TIME LBEL
         MVC   L70(L3,R3),L0(R4)             MOVE DAY VALUE
         MVC   L85(L2,R3),L3(R4)             MOVE HRS
         MVI   L87(R3),DOT                   MOVE OUT
         MVC   L88(L2,R3),L5(R4)             MOVE MIN VALUE
         B     RETURN
*
SETLBLS  STM   R14,R12,L12(R13)              SAVE REGS
         SR    R5,R5
         IC    R5,L0(R4)                     PICK UP CODE
         SLL   R5,L28                        DROP OFF HI-ORDER 7
         SRL   R5,L26                        MUNT LOW ORDER BY 4
         L     R5,ADCONS(R5)                 PICK UP LABEL ADCON
         ST    R5,LABELPTR
         B     RETURN
ADCONS   DC    A(LBL70)
         DC    A(LBL71)
         DC    A(LBL72)
         DC    A(LBL73)
         DC    A(LBL74)
         DC    A(LBL75)
         DC    A(LBL76)
         DC    A(LBL77)
         DC    A(LBL78)
         DC    A(LBL79)
         DC    A(LBL7A)
         DC    A(LBL7B)
         DC    A(LBL7C)
         DC    A(LBL7D)
         DC    A(LBL7E)
         DC    A(LBL7F)
SETHEX   STM   R14,R12,L12(R13)         SAVE REGS
         LA    R6,L2                    NUMB OF CHAR
SETHEX1  IC    R5,L0(R4)                PICK UP CHAR
         SLL   R5,L24                   PUT IN HI POS OF R5
SETHEX2  SR    R4,R4                    CLEAR 4
         SLDL  R4,L4                    SHIFT 4 BITS
         LA    R7,CHARS(R4)             SET PTR TO CHAR REP BY 4 BITS
         MVC   L0(L1,R3),L0(R7)         MOVE CHAR TO PRINT LINE
         LA    R3,L1(R3)                BUMP PRNT PTR
         BCT   R6,SETHEX2               LOOP
         B     RETURN
SETHEXL  STM   R14,R12,L12(R13)
         LA    R6,L1                    NUMB OF CHAR
         B     SETHEX1                  BR
SETHEXR  STM   R14,R12,L12(R13)
         LA    R6,L1                    NUMB OF CHAR
         IC    R5,L0(R4)                PICK UP BYTE
         SLL   R5,L28                   SHIFT TO LOW 4 BITS
         B     SETHEX2
*
SETSW    EQU   *
         MVI   SWITCH,HEXFF
         BR    R14
*
*
SETDOT0  STM   R14,R12,L12(R13)
SETDOTA  LA    R4,L7(R3)
SETDOT1  LA    R5,L12
SETDOT2  MVI   L0(R4),DOT
         LA    R4,L10(R4)
         BCT   R5,SETDOT2
         B     RETURN
*
*
*
TESTSW   STM   R14,R12,L12(R13)
         CLI   L7(R4),HEXF0        IS IT SPEC AS
         BE    TESTSW1             YES
         CLI   L7(R4),HEXF1        IS IT SPEC AS
         BE    TESTSW1             YES
         SR    R5,R5
         IC    R5,L9(R4)           PICK UP CODE
         SRL   R5,L4               DROP OFF LOW 4 BITS
         CH    R5,H10              GTR THAN 10
         BNH   TESTSW2             BR-NO
TESTSW1  LA    R5,L10              SET TO 10
TESTSW2  MH    R5,H10              MULT BY 10 TO GIVE BUFF OFFSET
         LA    R6,L1(R3)           COL START
         AR    R6,R5               COMPUTE ADDR
         MVC   L0(L3,R6),L0(R4)    MOVE
         MVC   L4(L2,R6),L3(R4)    IN
         MVI   L6(R6),DOT          DAY &
         MVC   L7(L2,R6),L5(R4)    TIME
         LR    R4,R3                    SET UP  FOR DOTS
         B     SETDOT1
*
*
SETDOTS  STM   R14,R12,L12(R13)
         CLI   L0(R4),HEXF0             IS IT SPECIAL
         BE    SETDOTSA                 YES
         CLI   L0(R4),HEXF1        IS IT SPECIAL
         BE    SETDOTSA                 YES
         SR    R5,R5                    CLEAR REG
         IC    R5,L2(R4)                PICK UP CODE
         SRL   R5,L4                    DROP OFF LOW 4
         CH    R5,H10                   IS IT 10
         BNH   SETDOTSB                 BR NOT HI
SETDOTSA LA    R5,L10                   SET TO 10
SETDOTSB SLL   R5,L2                    MULTI X 4
         B     TABLE(R5)                B TO TABLE
TABLE    B     AS0
         B     AS1
         B     AS2
         B     AS3
         B     AS4
         B     AS5
         B     AS6
         B     AS7
         B     AS8
         B     AS9
         B     ASA
AS0      EQU   *
AS1      EQU   *
AS8      EQU   *
         LA    R8,L2          SET INDICATOR
         B     ASALL
AS2      EQU   *
AS3      EQU   *
AS4      EQU   *
AS5      EQU   *
AS9      EQU   *
         LA    R8,L3               SET INO
         B     ASALL
AS6      EQU   *
AS7      EQU   *
         SR    R8,R8               SET IND
         B     ASALL
ASA      EQU   *
         LA    R8,L4
         IC    R7,L2(R4)           PICK UP NXT
         SLL   R7,L8               SHIFT
         IC    R7,L3(R4)           PICK UP NXT
         SLL   R7,L16
         B     ASALL1
ASALL    IC    R7,L2(R4)           PICK UP CHAR
         SLL   R7,L8               SHIFT
         IC    R7,L3(R4)           PICK UP NXT
         SLL   R7,L20              SHIFT TO HI
ASALL1   SRL   R5,L2                    DIVIDE BY 4
         MH    R5,H10              COMPUTER OFFSET
         LA    R4,L9(R3)           COL START
         AR    R4,R5
         LTR   R8,R8               IS CODE 0
         BZ    NOTAPP              BR-YES
         CH    R8,H3               TEST ENTRY
         BE    ASALL3
         BH    ASALL4
         LA    R4,L4(R4)           BUMP PTR
         B     ASALL2
ASALL3   SR    R6,R6
         SLDL  R6,L4               BRING 4 BITS TO 6
         LA    R2,CHARS(R6)        INDEX CHAR
         MVC   L0(L1,R4),L0(R2)    MOVE TO LINE
         LA    R4,L4(R4)
ASALL2   SR    R6,R6
         SLDL  R6,L4               MOVE NXT 4 BITS
         LA    R2,CHARS(R6)        INDEX CHAR
         MVC   L0(L1,R4),L0(R2)
         SR    R6,R6
         SLDL  R6,L4
         LA    R2,CHARS(R6)
         MVC   L1(L1,R4),L0(R2)
         B     SETDOTA
ASALL4   LA    R5,L2                    LOOP COUNTER
ASALL4A  SR    R6,R6
         SLDL  R6,L4
         LA    R2,CHARS(R6)
         MVC   L0(L1,R4),L0(R2)
         SR    R6,R6
         SLDL  R6,L4
         LA    R2,CHARS(R6)
         MVC   L1(L1,R4),L0(R2)
         LA    R4,L3(R4)                BUMP POINTER
         BCT   R5,ASALL4A
         B     SETDOTA
NOTAPP   BCTR  R4,R0
         MVC   L0(L9,R4),NOTAPPLY
         B     SETDOTA
*
*
*        EQUATES
*
L0       EQU   0
L1       EQU   1
L2       EQU   2
L3       EQU   3
L4       EQU   4
L5       EQU   5
L6       EQU   6
L7       EQU   7
L8       EQU   8