         TITLE 'IFCEXXX3 - EDIT TABLE - LINKNAME=IFCE1443, ALIASES=IFCEC
               1419,IFCE1275,IFCE1285,IFCE2671'
         SPACE 2
*  LINE MACRO     LINE MACRO     LINE MACRO     LINE MACRO            *
         MACRO
&NAME    LINE  &DATA,&LABEL,&SKIP=
.*                            THIS MACRO ESTABLISHES THE MARGINS OR
.*                                 COLUMN SETTINGS FOR EACH LINE. IT
.*                                 GENERATES NECESSARY CARRIAGE CONTROL
.*                                 ENTRIES. LASTLY IT DETERMINES THE
.*                                 NUMBER OF ENTRIES ASSOCIATED WITH
.*                                 THE PREVIOUS LINE AND STORES THAT #
.*                                 INTO THE APPROPRIATE BYTE.
.*                                 &DATA(1) - CHARACTER POSITION TO
.*                                 BEGIN DATA.
.*
.*                                 &DATA(2) - # OF SPACES BETWEEN
.*                                 SUCCESSIVE DATA COLUMN STARTING
.*                                 CHARACTERS.
.*
.*                                 &LABEL(1) - CHARACTER POSITION
.*                                 TO BEGIN LABELS.
.*
.*                                 &LABEL(2) - # OF SPACES BETWEEN
.*                                 LINE'S LABEL STARTING CHARACTERS.
.*
.*                                 &SKIP= - # OF LINES TO ADVANCE
.*                                 CARRIAGE TO BEGIN NEXT PRINTED LINE.
.*
.*                                 NEW ENTRIES ARE GENERATED ONLY WHEN
.*                                 NECESSARY. OMISSION OF ITEMS MEANS
.*                                 THEY HAVE NOT CHANGED SINCE PREVIOUS
.*                                 SETTINGS. A LINE MACRO IS REQUIRED
.*                                 FOR EACH PRINTED LINE. IF NO SETTING
.*                                 CHANGES ARE REQUIRED ALL OPERANDS
.*                                 ARE OMITTED IN WHICH CASE ONLY THE
.*                                 # OF ENTRIES FOR THE PREVIOUS LINE
.*                                 FIRST MACRO INSTRUCTION ISSUED FOR
.*                                 THE SUBJECT LINE.
         GBLA  &DB,&DT,&LB,&LT,&NRENTS
         GBLA  &LASTCC,&INITIAL
         GBLC  &NRENTSX
         GBLC  &CARRCON
         GBLB  &TEST
         LCLA  &S
&NAME    DS    0C
         AIF   (&INITIAL EQ 0).FIRSTLN
         LINEND
         AGO   .NTFIRST
.FIRSTLN ANOP
&NRENTSX SETC  'N&SYSNDX'
&INITIAL SETA  1
&LASTCC  SETA  1
N&SYSNDX EQU   *
.NTFIRST ANOP
         DC    AL1(0)
         AIF   ('&DATA(1)' EQ '').CKDTABS
         AIF   ('&DATA'(1,1) NE '(').SLABEL
         AIF   (&DATA(1) EQ &DB).CKDTABS
&DB      SETA  &DATA(1)
         AGO   .AA
.CKDTABS AIF   ('&DATA(2)' EQ '').NCDATA
         AIF   (&DATA(2) EQ &DT).NCDATA
         AGO   .CC
.AA      AIF   ('&DATA(2)' EQ '').BB
         AIF   (&DATA(2) EQ &DT).BB
.CC      ANOP
&DT      SETA  &DATA(2)
.BB      DC    XL2'FFFE'
         DC    FL1'&DB'
         DC    FL1'&DT'
&NRENTS  SETA  &NRENTS+1
.NCDATA  ANOP
         AIF   ('&LABEL(1)' EQ '').CKLTABS
         AIF   ('&LABEL'(1,1) NE '(').SLABEL
         AIF   (&LABEL(1) EQ &LB).CKLTABS
&LB      SETA  &LABEL(1)
         AGO   .AAA
.CKLTABS AIF   ('&LABEL(2)' EQ '').NCLABEL
         AIF   (&LABEL(2) EQ &LT).NCLABEL
         AGO   .CCC
.AAA     AIF   ('&LABEL(2)' EQ '').BBB
         AIF   (&LABEL(2) EQ &LT).BBB
.CCC     ANOP
&LT      SETA  &LABEL(2)
.BBB     DC    XL2'FFFF'
         DC    FL1'&LB'
         DC    FL1'&LT'
&NRENTS  SETA  &NRENTS+1
.NCLABEL ANOP
         AIF   ('&SKIP' EQ 'E').EJECT
         AIF   ('&SKIP' EQ '').TESTOFF
.CONT    ANOP
         AIF   (&TEST EQ 0).AB
         AIF   (&SKIP EQ &LASTCC).TESTOFF
&S       SETA  &SKIP
         ORG   &CARRCON+3
         DC    AL.3(0),AL.2(&S),AL.3(1)
         ORG
&LASTCC  SETA  &S
.SLABEL  ANOP
.TESTOFF ANOP
&TEST    SETB  0
         AGO   .DD
.EJECT   DC    XL2'FFFB'
&NRENTS  SETA  &NRENTS+1
         DC    X'8B'              SKIP TO CHANNEL 1
         DC    AL.3(0),AL.2(&LASTCC),AL.3(1)
&TEST    SETB  1
         AGO   .DD
.AB      AIF   (&SKIP EQ &LASTCC).NOCHANG
A&SYSNDX DC    XL2'FFFB'
         DC    AL.3(0),AL.2(&SKIP),AL.3(1)
         DC    AL.3(0),AL.2(&SKIP),AL.3(1)
&LASTCC  SETA  &SKIP
&TEST    SETB  1
&CARRCON SETC  'A&SYSNDX'
&NRENTS  SETA  &NRENTS+1
.DD      ANOP
.NOCHANG ANOP
         MEND
         EJECT
         SPACE 2
*  ROUTINE MACRO     ROUTINE MACRO     ROUTINE MACRO     ROUTINE MACRO*
         MACRO
&NAME    ROUTINE &LOGITEM,&RNAME
         GBLC  &DSECT,&CSECT
         GBLC  &ITEM(1000)
         GBLA  &SHIFT(1000),&ITEMNBR
         GBLA  &NRENTS
         LCLA  &ISHIFT,&NDX
.LOOP    ANOP
&NDX     SETA  &NDX+1
         AIF   ('&ITEM(&NDX)' EQ '&LOGITEM').FOUND
         AIF   (&NDX LT &ITEMNBR).LOOP
         MNOTE *,'LOG ITEM NOT DEFINED'
         MEXIT
.FOUND   ANOP
&ISHIFT  SETA  &SHIFT(&NDX)
&NAME    DC    AL.12(&LOGITEM-&DSECT),XL.4'D'
         DC    AL.4(&ISHIFT),AL.12(&RNAME-&CSECT)
&NRENTS  SETA  &NRENTS+1
         MEND
*  DSGEN MACRO     DSGEN MACRO     DSGEN MACRO     DSGEN MACRO        *
         SPACE 2
         MACRO
&NAME    DSGEN &X1,&X2,&X3,&X4,&X5,&X6,&X7,&X8,&X9,&X10,&X11,&X12,&X13,X
               &X14,&X15,&X16,&X17,&X18,&X19,&X20,&X21,&X22,&X23,&X24, X
               &X25,&X26,&X27,&X28,&X29,&X30,&X31,&X32
.*                            THIS MACRO GENERATES ONE DSECT WORD
.*                                 FORMATTED FOR THE SUBJECT LOG RECORD
.*                                 EACH OPERAND HAS TWO SUB LISTS. THE
.*                                 FIRST IS THE NAME OF THE LOG ITEM
.*                                 WHILE THE SECOND IS THE # OF BITS TO
.*                                 ALLOCATE FOR THIS ITEM. ITEMS MUST
.*                                 BE DEFINED CONTIGUOUSLY WITHOUT GAPS
.*                                 UNUSED BIT GROUPS MUST BE GIVEN
.*                                 DUMMY NAMES. THE NAMES PROVIDED FOR
.*                                 THE LOG ITEMS MAY THEN BE USED IN
.*                                 THE CONVERSION MACRO INSTRUCTIONS.
         GBLC &ITEM(1000)
         GBLA &ITEMNBR,&BITS(1000),&SHIFT(1000)
         LCLC  &SYMBOL
         LCLA  &OP,&COUNT,&BYTE
.LOOP    ANOP
&OP      SETA  &OP+1
&ITEMNBR SETA  &ITEMNBR+1
&SYMBOL  SETC  '&SYSLIST(&OP,1)'
         AIF   ('&SYSLIST(&OP,2)' NE '').OK1
         MNOTE *,'NULL BIT COUNT FIELD'
         MEXIT
.OK1     ANOP
         AIF   ('&SYMBOL' NE '').OK
         MNOTE 'LOG ITEM SYMBOL NOT PROVIDED'
         AGO   .CNT
.OK      ANOP
         AIF   ('&SYMBOL'(1,1) EQ '''').CNT                *TEMP*
&SYMBOL  EQU   *+&BYTE
&ITEM(&ITEMNBR)  SETC '&SYSLIST(&OP,1)'
&BITS(&ITEMNBR) SETA &SYSLIST(&OP,2)
&SHIFT(&ITEMNBR) SETA &COUNT-&BYTE*8
.CNT     ANOP
&COUNT   SETA  &COUNT+&SYSLIST(&OP,2)
&BYTE    SETA  &COUNT/8
         AIF (&OP LT N'&SYSLIST).LOOP
         AIF   (&COUNT NE 32).NOT32
&NAME    DS    4C
         MEXIT
.NOT32   AIF   (&COUNT NE 64).ERR
&NAME    DS    8C
         MEXIT
.ERR     MNOTE '**BIT COUNT FIELDS DO NOT TOTAL 32 OR 64**'
         MEND
         MACRO
         LINEND
.*                            THIS MACRO IS USED ONLY BY THE LINE
.*                                 MACRO TO SET THE NUMBER OF ENTRIES
.*                                 ASSOCIATED WITH EACH LINE.
         GBLA  &NRENTS
         GBLC &NRENTSX
         ORG   &NRENTSX
         DC    FL1'&NRENTS'
         ORG
&NRENTS  SETA  0
B&SYSNDX EQU   *
&NRENTSX SETC  'B&SYSNDX'
         MEND
         SPACE 2
         EJECT
*  LABEL MACRO     LABEL MACRO     LABEL MACRO     LABEL MACRO        *
         SPACE 2
         MACRO
&NAME    LABEL &LABEL1,&LABEL2,&LABEL3,&LABEL4,&LABEL5,&LABEL6,        C
               &LABEL7,&LABEL8
.*                            THIS MACRO ALLOWS UP TO ACHT LABELS TO
.*                                 BE SPECIFIED FOR A GIVEN LINE. THE
.*                                 LABELS SHOULD BE ENCLOSED IN QUOTA-
.*                                 TION MARKS. THE COLUMN AND LINE END
.*                                 CONTROLS WILL BE INSERTED BY THE
.*                                 MACRO. OMITTED OPERANDS MEAN NO
.*                                 LABEL REQUIRED FOR RESPECTIVE
.*                                 COLUMN. THIS MACRO WILL ALSO ALERT
.*                                 THE PROGRAMMER TO EXACTLY WHERE THE
.*                                 TABLE MUST BE BROKEN IF NECESSARY
.*                                 TO AVOID EXCEEDING THE MAXIMUM LIMIT
         GBLC &LABELS(2000)
         GBLC  &LBL(100)
         GBLA  &LBLCTR(100)
         GBLA  &LABELNR
         GBLA  &NRENTS,&LPTR
         LCLC  &MARGIN,&TACK
         LCLC  &TEXT
         LCLA  &OP,&K,&START,&NRCHAR,&REMAIN
&MARGIN  SETC  '*'
         AIF   ('&NAME' EQ '').LOOPOUT
&LPTR    SETA  &LPTR+1
&LBL(&LPTR) SETC '&NAME'
&LBLCTR(&LPTR) SETA &LABELNR+1
.LOOPOUT ANOP
&OP      SETA  &OP+1
&K       SETA  K'&SYSLIST(&OP)
         AIF (&K GE 2).NORM
&K       SETA  2
.NORM    ANOP
&START   SETA  2
         AIF (&OP LT N'&SYSLIST).NOTLAST
&MARGIN  SETC  '$'
.NOTLAST ANOP
&NRCHAR  SETA  8
&TACK    SETC  ''
.LOOPIN  ANOP
&REMAIN  SETA  &K-&START
         AIF (&REMAIN GE 8).MORE
&TACK    SETC  '&MARGIN'
&NRCHAR  SETA  &REMAIN
.MORE    ANOP
&TEXT    SETC  ''
         AIF (&REMAIN EQ 0).ENDTEXT
&TEXT    SETC  '&SYSLIST(&OP)'(&START,&NRCHAR)
.ENDTEXT ANOP
&LABELNR SETA  &LABELNR+1
&LABELS(&LABELNR) SETC '&TEXT'.'&TACK'
&START   SETA  &START+8
         AIF ('&TACK' EQ '').LOOPIN
         AIF ('&TACK' EQ '*').LOOPOUT
         MEND
         SPACE 2
         MACRO
         LSTART
.*                            THIS MACRO IS ISSUED WHEN THE LABEL AREA
.*                                 OF THE TABLE IS TO BEGIN.
         GBLC &LABELS(2000)
         GBLA  &LABELNR
         GBLC  &LBL(100)
         GBLA  &LBLCTR(100)
         LCLA  &NDX,&CTR
         LINEND
&CTR     SETA  1
.LOOP    ANOP
&NDX     SETA  &NDX+1
         AIF   (&LBLCTR(&CTR) NE &NDX).NOLBL
&LBL(&CTR) DC  C'&LABELS(&NDX)'
&CTR     SETA  &CTR+1
         AGO   .LOOPCTL
.NOLBL   ANOP
         DC    C'&LABELS(&NDX)'
.LOOPCTL AIF   (&NDX LT &LABELNR).LOOP
         MEND
         SPACE 2
*  BIN MACRO     BIN MACRO     BIN MACRO     BIN MACRO     BIN MACRO  *
         SPACE 2
         MACRO
         BIN   &LOGITEM,&SKIP$OR
.*                                 &LOGITEM - NAME OF ITEM IN LOG
.*                                      RECORD DSECT
.*                                 &SKIP$OR - NBR OF SPACES TO SKIP ON
.*                                 MULTIPLE PRINT OR NBR OF SPACES
.*                                      TO BACK UP FROM COLUMN FOR
.*                                      START OF PRINTING. THE LETTER
.*                                      B PRECEEDS THE NUMBER (B5) IF
.*                                      THE LATTER IS DESIRED. OMISSION
.*                                      OF THIS OPERAND FORCES OPTION 2
.*                                      WITH BACKUP SPACING EQUAL TO
.*                                 THE NUMBER OF BITS IN THE ITEM
.*                                 DEFINITION (VIA MACRO 'DSGEN').
.*                            A LIMIT OF 15 BITS IS IMPOSED FOR THE
.*                                 TOTAL NUMBER OF BITS TO PRINT.
         GBLC &ITEM(1000)
         GBLA &ITEMNBR,&BITS(1000),&SHIFT(1000),&NRENTS
         GBLC  &DSECT
         LCLB  &B
         LCLA  &IBITS,&NDX,&ISHIFT,&K
         LCLA  &TEMP,&T
         LCLC  &S
.LOOP    ANOP
&NDX     SETA  &NDX+1
         AIF   ('&ITEM(&NDX)' EQ '&LOGITEM').FOUND
         AIF   (&NDX LT &ITEMNBR).LOOP
         MNOTE *,'YOU BLEW IT'
         ROUTINE DUM,SKIPPER
         MEXIT
.FOUND   ANOP
&ISHIFT  SETA  &SHIFT(&NDX)
&IBITS   SETA  &BITS(&NDX)
&T       SETA  &IBITS-1
&B       SETB  0
         AIF   ('&SKIP$OR' EQ '').BACKUP
&K       SETA  K'&SKIP$OR
&B       SETB  ('&SKIP$OR'(1,1) EQ 'B')
&S       SETC  '&SKIP$OR'(&B+1,&K-&B)
&T       SETA  &S
.BACKUP  ANOP
&NRENTS  SETA  &NRENTS+1
&TEMP    SETA  &ISHIFT
A&SYSNDX DC    AL.12(&LOGITEM-&DSECT),XL.4'&TEMP'
         AIF (&IBITS EQ 1 AND &B EQ 0).OUT
         ORG   A&SYSNDX
&B       SETB  1
         DC    AL.12(&LOGITEM-&DSECT),XL.4'C'
         DC    BL.1'&B',AL.7(&T),AL.4(&IBITS),FL.4'&ISHIFT'
.OUT     ANOP
         MEND
         EJECT
*  HEX MACRO     HEX MACRO     HEX MACRO    HEXN MACRO     HEX MACRO  *
         SPACE 2
         MACRO
         HEX   &LOGITEM,&SKIP$OR,&BYTES
.*                                 CONVERSIONS.
.*                            &LOGITEM - NAME OF DATA ITEM TO BE
.*                                 CONVERTED
.*                            &SKIP$OR - NUMBER OF SPACES TO SKIP ON
.*                                 MULTIPLE PRINT OR NBR OF SPACES TO
.*                                 BACK UP FROM COLUMN FOR START OF
.*                                 PRINTING. THE LETTER B PRECEEDS THE
.*                                 NUMBER (B8) IF THE LATTER OPTION IS
.*                                 DESIRED. OMISSION OF THIS OPERAND
.*                                 FORCES OPTION 2 WITH BACKUP SPACING
.*                                 EQUAL TO THE NUMBER OF BYTES SPECI-
.*                                 FIED BY THE NEXT OPERAND (TWICE THIS
.*                                 NUMBER IF SUFFIX IS EXPLICITLY OR
.*                                 IMPLICITLY B).
.*                            &BYTES - NUMBER OF TOTAL INPUT BYTES TO
.*                                 PROCESS. THIS NUMBER IS SUFFIXED
.*                                 WITH AN L,R, OR B TO STIPULATE
.*                                 PRINTING OF THE LEFT HALF, RIGHT
.*                                 HALF, OR BOTH HALVES OF THE BYTE
.*                                 RESPECTIVELY. OMISSION OF THIS
.*                                 OPERAND DEFAULTS TO B WITH THE NUM-
.*                                 BER OF BYTES EQUAL TO THE ITEM LNGTH
.*                            A NEW ENTRY IS GENERATED ONLY WHEN NECES-
.*                                 SARY. THIS MACRO MUST BE THE FIRST
.*                                 MACRO INSTRUCTION ISSUED FOR THE
.*                                 SUBJECT LINE(S).
         GBLC &ITEM(1000),&DSECT
         GBLA &ITEMNBR,&BITS(1000),&SHIFT(1000),&NRENTS
         LCLB  &B
         LCLA  &IBITS,&NDX,&ISHIFT,&K,&T,&CODE,&BYTESP
         LCLC  &S,&LETTER
.LOOP    ANOP
&NDX     SETA  &NDX+1
         AIF   ('&ITEM(&NDX)' EQ '&LOGITEM').FOUND
         AIF   (&NDX LT &ITEMNBR).LOOP
         MNOTE *,'LOG ITEM NOT DEFINED'
         MEXIT
.FOUND   ANOP
&ISHIFT  SETA  &SHIFT(&NDX)
&IBITS   SETA  &BITS(&NDX)
&CODE    SETA  1
&K       SETA  K'&BYTES
         AIF   (&IBITS-(&IBITS/4)*4 EQ 0).OK
         MNOTE *,'BIT LENGTH SPECIFICATION INCONSISTENT WITH CONTROL'
         MEXIT
.OK      AIF   ('&BYTES' EQ '').USEDEFN
&LETTER  SETC  '&BYTES'(&K,1)
&S       SETC  '&BYTES'(1,&K-1)
&BYTESP  SETA  &S
         AIF   ('&LETTER' EQ 'B').BOTH
         AIF   (&ISHIFT EQ 0 OR &ISHIFT EQ 4).OK2
.ERR     MNOTE *,'DATA NOT ALLIGNED ON HEX OR BYTE BOUNDARY'
         MEXIT
.USEDEFN ANOP
&BYTESP  SETA  &IBITS/8
.BOTH    AIF   (&ISHIFT NE 0).ERR
&CODE    SETA  3
&T       SETA  &BYTESP*2-1
.OK2     AIF   (&ISHIFT EQ 0).L
&CODE    SETA  2
.L       ANOP
&S       SETC  '&T'
&B       SETB  1
         AIF   ('&SKIP$OR' EQ '').BACKUP
&K       SETA  K'&SKIP$OR
&B       SETB  ('&SKIP$OR'(1,1) EQ 'B')
&S       SETC  '&SKIP$OR'(&B+1,&K-&B)
.BACKUP  ANOP
&NRENTS  SETA  &NRENTS+1
         DC    AL.12(&LOGITEM-&DSECT),XL.4'A'
         DC    BL.1'&B',FL.7'&S',FL.4'&BYTESP',FL.4'&CODE'
.OUT     ANOP
         MEND
         MACRO
         SPECIAL  &ROUTINE,&PARAM,&SPACE=
.*                            THIS MACRO GENERATES A SPECIAL ROUTINE
.*                                 ENTRY TO BE PROCESSED BY THE SUM. M.
.*                            &ROUTINE - SYMBOL ON SPECIAL ROUTINE EWT.
.*                            &PARAM - AN 8 BIT BINARY REPRESENTATION
.*                                 TO OCCUPY THE 'MASK' FIELD BUT TO BE
.*                                 INTERPRETED AS AN ARGUMENT OF THE
.*                                 SPECIAL ROUTINE.
.*                            &SPACE - THE NUMBER OF 2BYTE COUNTERS TO
.*                                 ALLOCATE FOR REQUIRED PROCESSING.
         GBLC  &CSECT
         GBLA  &COUNTR
         LCLA  &ADD
         DC    AL1(128)
         DC    BL.8'&PARAM'
         DC    AL2(&ROUTINE-&CSECT)
         DC    AL2(&COUNTR)
&ADD     SETA  1
         AIF   ('&SPACE' EQ '').NORM
&ADD     SETA  &SPACE
.NORM    ANOP
&COUNTR  SETA  &COUNTR+&ADD
         MEND
         MACRO
         SUM   &LOGITEM,&MASK
.*                            THIS MACRO GENERATES A NORMAL EDIT ENTRY
.*                                 FOR PROCESSING BY THE SUMMARY MODULE
.*                            &LOGITEM - NAME OF DATA ITEM TO BE SUMMED
.*                            &MASK - BYTE MASK FOR BITS TO BE TESTED.
.*                                 THIS OPERAND SHOULD BE OMITTED FOR
.*                                 SINGLE BIT ITEMS IN WHICH CASE THE
.*                                 MASK WILL BE SET ACCORDING TO THE
.*                                 OFF BYTE BIT DISPLACEMENT OF THE
.*                                ITEM AS DEFINED BY THE MACRO 'DSGEN'
         GBLA  &COUNTR,&ITEMNBR,&BITS(1000),&SHIFT(1000)
         GBLC  &ITEM(1000),&DSECT
         LCLA  &IBITS,&NDX,&ISHIFT,&M,&BITNBR
.LOOP    ANOP
&NDX     SETA  &NDX+1
         AIF   ('&ITEM(&NDX)' EQ '&LOGITEM').FOUND
         AIF   (&NDX LT &ITEMNBR).LOOP
         MNOTE *,'LOGITEM NOT FOUND'
         MEXIT
.FOUND   ANOP
         DC    AL1(0)
&ISHIFT  SETA  &SHIFT(&NDX)
&IBITS   SETA  &BITS(&NDX)
         AIF   ('&MASK' EQ '').FORM
         DC    B'&MASK'
         AGO   .ITEM
.FORM    ANOP
&BITNBR  SETA  &ISHIFT-7
&BITNBR  SETA  0-&BITNBR
&M       SETA  1
.LOOP2   ANOP
         AIF   (&BITNBR EQ 0).GOTIT
&M       SETA  &M*2
&BITNBR  SETA  &BITNBR-1
         AGO   .LOOP2
.GOTIT   ANOP
         DC    AL1(&M)
.ITEM    DC    AL2(&LOGITEM-&DSECT)
         DC    AL2(&COUNTR)
&COUNTR  SETA  &COUNTR+1
         MEND
         GBLC  &DSECT,&CSECT
IFCEXXX3 CSECT
&CSECT   SETC  'IFCEXXX3'
&DSECT   SETC  'XXX3'
*
*              EDIT TABLE FOR OBR REC
*
*        DEVICE CODE=080A  DEV TYPE= 1443    ALIAS= IFCE1443
*                    081D            1419          IFCE1419
*                    081E            1419           IFCE1419
*                    081F            1275          IFCE1275
*                    081A            1285           IFCE1285
*                    0810            2671           IFCE2671
*
XXX3     DSECT
         DSGEN (XDUM1,8),(XRELN,8),(XDUM2,8),                    S21021X
               (SW2B0,1),(SW2B1,1),(SW2B2,1),(SW2B3,1),          S21021X
               (SW2B4,1),(SW2B5,1),(SW2B6,1),(SW2B7,1)           S21021
         DSGEN (XDUM3,32)                         SPARES
         DSGEN (XDATE,32)                         DATE
         DSGEN (XTIME,32)                         TIME
         DSGEN (XDUM4,8),(XSER,24)           SERIAL NO
         DSGEN (XMODEL,16),(XDUM5,16)        MODEL NUMBER & MCLEN
         DSGEN (XPGN1,32)                    PROGRAM
         DSGEN (XPGN2,32)                            NAME
         DSGEN (XFCCWCC,8),(XFCCWDA,24)  FAILING CCW
         DSGEN (XFCCWFL,8),(XZERO,8),(XFCCWCT,16)    CCW
         DSGEN (XCSWK,8),(XCSWCA,24)         CHAN  STATUS
         DSGEN (XCSWATTN,1),(XCSWSM,1),(XCSWCUE,1),      WORD  CSW     C
               (XCSWBSY,1),(XCSWCE,1),(XCSWDE,1),(XCSWUC,1),(XCSWUE,1),C
               (XCSWPCI,1),(XCSWSILI,1),(XCSWPC,1),(XCSWPCHK,1),       C
               (XCSWCDC,1),(XCSWCCC,1),(XCSWICC,1),(XCSWCH,1),         C
               (XCSWCT,16)
         DSGEN (XDUMA,8),(XCUA2,24)                              S21021
         DSGEN (XDEVT1,16),(XDEVT2,16)       DEVICE TYPE
         DSGEN (XDUM6,8),(XCUA,24)           DUMMY AND CUA
         DSGEN (XDUM7,16),(XDUM8,16)         RTRY AND SPARE
         DSGEN (XDUM9,32)                    VOLUME
         DSGEN (XDUM10,32)                          SER
         DSGEN (XDUM11,32)                   LAST
         DSGEN (XDUM12,32)                        SEEK
         DSGEN (XDUM13,32)                   HOME
         DSGEN (XDUM14,32)                        ADDRESS
         DSGEN (SDR1,8),(SDR2,8),(SDR3,8),(SDR4,8),(SDR5,8),     S21021X
               (SDR6,8),(SDR7,8),(SDR8,8)                        S21021
         DSGEN (SDR9,8),(SDRA,8),(XB0CMDR,1),(XB0INTRQ,1),       S21021X
               (XB0BUSC,1),(XB0ECHK,1),(XB0DCHK,1),                    C
               (XB0BIT5,1),(XB0BIT6,1),(XB0BIT7,1),                    C
               (XB1FLD6,1),(XB1FLD7,1),(XB1DOCUN,1),(XB1AFVAL,1),      C
               (XB1PCF,1),(XB1ACCVL,1),(XB1TFVAL,1),(XB1SERV,1)
*
*                   1419 CODE 081E HAS TE SENSE BYTES
*
         DSGEN (XDUM19,32)
EXPNOBR  DSECT                                                   S21021
EXPNHDRA DS CL52                                                 S21021
EXPNDEVA DS CL36                                                 S21021
EXPNSDRA DS CL10                                                 S21021
EXPNSNSA DS CL6                                                  S21021
*                                                                S21021
NORMOBR DSECT                                                    S21021
NORMHDRA DS CL64                                                 S21021
NORMSDRA DS CL10                                                 S21021
NORMSNSA DS CL6                                                  S21021
*                                                                S21021
SHRTOBR DSECT                                                    S21021
SHRTHDRA DS CL24                                                 S21021
SHRTDEVA DS CL8                                                  S21021
SHRTSDRA DS CL10                                                 S21021
*                                                                S21021
*
*        END OF DSECT    104 BYTES TOTAL
*
IFCEXXX3 CSECT
         USING *,R9
R0       EQU   0
R1       EQU   1
R2       EQU   2
R3       EQU   3
R4       EQU   4
R5       EQU   5
R6       EQU   6
R7       EQU   7
R8       EQU   8
R9       EQU   9
R10      EQU   10
R11      EQU   11
R12      EQU   12
R13      EQU   13
R14      EQU   14
R15      EQU   15
L0       EQU   0
L1       EQU   1
L2       EQU   2
L3       EQU   3
L4       EQU   4
L5       EQU   5
L6       EQU   6
L7       EQU   7
L8       EQU   8
L9       EQU   9
L10      EQU   10
L11      EQU   11
L12      EQU   12
L13      EQU   13
L14      EQU   14
L15      EQU   15
L16      EQU   16
L17      EQU   17
L18      EQU   18
L19      EQU   19
L20      EQU   20
L21      EQU   21                                                S21021
L24      EQU   24
L26      EQU   26
L28      EQU   28
L29      EQU   29                                                S21021
L31      EQU   31                                                S21021
L34      EQU   34                                                S21021
L36      EQU   36                                                S21021
L44      EQU   44                                                S21021
L46      EQU   46                                                S21021
L50      EQU   50
L52      EQU   52
L54      EQU   54                                                S21021
L64      EQU   64                                                S21021
L104     EQU   104                                               S21021
DMP80    EQU   80                       NORMAL DUMP LENGTH
DMP104   EQU   104                      DUMP LENGTH CONVERTED
HEX08    EQU   X'08'                                             S21021
HEX20    EQU   X'20'                                             S21021
XFF      EQU   X'FF'                                             S21021
A        EQU   C'A'                                              S21021
B        EQU   C'B'                                              S21021
         USING XXX3,R2                                           S21021
*
         DC    A(ENTRIES)               PTR TO EDIT ENTRIES
         DC  CL8'IFCEXXX3'
XR9PTR   DS    F'0'
XLABELP  DC    F'0'
*        SPECIAL ROUTINE SECTION
*
SKIPPER  BR    R14                      NOOP RTRN
*
*
SPACER1  LA    R3,L1(R3)                SPACE ONE BLANK          S21021
         BR    R14                      RETURN
*
*
*        SET BINARY
*              R4 HAS PTR TO CHAR
*
SETBIN   STM   R5,R8,XSAVE              SAVE REGS
         IC    R7,L0(R4)                PICK UP CHAR TO PRINT
         SLL   R7,L24                   MOVE IT TO HI OF R7
         LR    R8,R3                    PRINT POS POINTER
         LA    R5,L8                    LOOP COUNT
SETBINA  SR    R6,R6                    CLEAR REG 6
         SLDL  R6,L1                    MOVE BIT TO R6
         STC   R6,L0(R8)                PUT IT INTO PTINT LINE
         MVZ   L0(L1,R8),CHAR0
         LA    R8,L1(R8)                BUMP POINTER TO NEXT POS
         BCT   R5,SETBINA               LOOP TILL 8 PRINTED
         B     RETURN                   RETURN
*
*        SET PROGRAM NAME  R4 POINTS TO NAME FIELD
*
SETPGMN  DS    0H                                                S21021
         TM    SW2B0,HEX20              SHORT RECORD             S21021
         BCR   1,R14                    YES, NO JOB ID           S21021
         MVC   0(L12,R3),JOBID          MOVE IN LABEL            S21021
         MVC   L13(L8,R3),XPGN1         MOVE IN NAME             S21021
         BR    R14                                               S21021
NONAME   TM    L0(R4),HEX20             SHORT RECORD?            S21021
         BCR   14,R14                   NO, LET HEX JOBNAME PRNT S21021
         ST    R5,XSAVE                 SAVE REG                 S21021
         LA    R5,L44                   BACK UP BUFFER PNTR      S21021
         SR    R3,R5                                             S21021
         MVC   0(L17,R3),BLANKS         CLEAR OUT HEX JOBNAME    S21021
         L     R5,XSAVE                 RESTORE REG              S21021
         BR    R14                                               S21021
*
*
*
*        SET HEX  SAME AS BIN EXCPT PRINTS 1 CHAR HEX
*
SETHEX   STM   R5,R8,XSAVE              SAVE REGS
         LA    R8,CHARS                 CHAR TABLE POINTER
         IC    R7,L0(R4)                PICK UP CHAR
         SLL   R7,L24                   MOVE IT TO HI OF R7
         SR    R6,R6                    CLEAR REGS
         SLDL  R6,L4                    MOVE FOUR BITS
         AR    R6,R8                    ADD OFFSET & PTR
         MVC   L0(L1,R3),L0(R6)         MOVE CHAR TO LINE
         SR    R6,R6                    CLEAR AGAIN
         SLDL  R6,L4                    MOVE LAST 4 BOTS
         AR    R6,R8                    COMPUTE OFFSET
         MVC   L1(L1,R3),L0(R6)         MOVE LAST CHAR
         B     RETURN
*
*
*
SETCONV  TM    L0(R4),HEX02             HAS RECORD BEEN CONVERTED KEY32
         BCR   ON,R14                   YES RETURN
         SR    R15,R15                  NO CLEAR R15 FOR NO PRINT OF
         BR    R14                      LINE BR-14
ON       EQU   1
HEX02    EQU   X'02'
*                                       SET DEVICE TYPE FIELD
*
SETDEVTY STM   R5,R8,XSAVE              SAVE REGS    R3 PTS TO BUFF POS
         LA    R5,L6                    NO OF DEVS   R4 PTS TO DEV TYP
         LA    R6,DEVTABLE
SETDEVLP CLC   L0(L2,L4),L0(R6)         COMPARE TYPES
         BE    SDEVFND                  BR-EQUAL
         LA    R6,L6(R6)                UP TO NXT DEV TYPE
         BCT   R5,SETDEVLP              LOOP
         MVC   L0(L4,R3),NONE           NONE FOUND USE NONE
         B     RETURN
SDEVFND  MVC   L0(L4,R3),L2(R6)         MOVE DEV NAME TO LINE
         B     RETURN
*
*
*                             CHECK ON CPU AND SERIAL NO
SETCPUNO STM   R5,R8,XSAVE
         SR    R5,R5               CLEAR R5
         IC    R5,L0(R4)           PICK UP MODEL NO
         SLL   R5,L8               IN TO
         IC    R5,L1(R4)           R5
         LTR   R5,R5                    TEST FOR ZERO MODEL      S21021
         LR    R5,R3                                             S21021
         BNZ   SETSER                                            S21021
         LA    R6,L46                   BACK UP TO SAY 'NONE'    S21021
         SR    R5,R6                    BACKUP BUFFER            S21021
         MVC   L0(L29,R5),UNIVERS       SAY NONE                 S21021
         B     RETURN                   RETURN  CONTROL
SETSER   LA    R6,L36                   ADD LABEL 'SERIAL NO.'   S21021
         SR    R5,R6                                             S21021
         MVC   0(L10,R5),SERNO                                   S21021
         B     RETURN                                            S21021
*
*        SET DATE
*
SETDATE  CLC   L1(L3,R4),ZERO           IS DATE ZERO
         BE    SETDTE                   BR-YES
         UNPK  XSAVE(L8),L1(L3,R4)      UNPACK DATE
         MVC  L5(L2,R3),XSAVE+L3   MOVE YEAR
         MVC   L0(L3,R3),XSAVE+L5       MOVE DAY
         BR    R14                      RETURN
SETDTE   MVC   L0(L4,R3),NONE           SET DATE TO NONE
         BR    R14
ZERO     DC    XL4'00'
*
*
SETLABEL STM   R5,R8,XSAVE              SAVE REGS
         L     R5,XLABELP               PICK UP LABEL PTR
         CLI   L1(R4),HEX10             TEST FOR 2671
         BE    RETURN                   BR-YES
         CLI   L1(R4),HEX0A             TEST FOR 1443
         BE    SET1443                  BR-YES
         CLI   L1(R4),HEX1A             TEST FOR 1285
         BE    SET1285                  BR-YES
SET1419F MVC   L0(L50,R5),CLABEL1       SET LABELS
         B     RETURN
SET1443  MVC   L0(L50,R5),CLABEL3       SET LABELS
         B     RETURN
SET1285  MVC   L0(L50,R5),CLABEL4       SET LABELS
*
RETURN   LM    R5,R8,XSAVE              RESTORE REG
         BR    R14                      RETURN
HEX0A    EQU   X'0A'
HEX10    EQU   X'10'
HEX1A    EQU   X'1A'