         TITLE 'IFCE2860 - EDIT TABLE - LINKNAME=IFCE2860'
         TITLE 'IFCE2860 - EDIT TABLE - LINKNAME=IFCE2860'
         MACRO
&NAME    DSGEN ,
.*                            THIS MACRO GENERATES ONE DSECT WORD
.*                                 FORMATTED FOR THE SUBJECT LOG RECORD
.*                                 EACH OPERAND HAS TWO SUB LISTS. THE
.*                                 FIRST IS THE NAME OF THE LOG ITEM
.*                                 WHILE THE SECOND IS THE # OF BITS TO
.*                                 ALLOCATE FOR THIS ITEM. ITEMS MUST
.*                                 BE DEFINED CONTIGUOUSLY WITHOUT GAPS
.*                                 UNUSED BIT GROUPS MUST BE GIVEN
.*                                 DUMMY NAMES. THE NAMES PROVIDED FOR
.*                                 THE LOG ITEMS MAY THEN BE USED IN
.*                                 THE CONVERSION MACRO INSTRUCTIONS.
         GBLC &ITEM(1500)                                      @YM2954P
         GBLA &ITEMNBR,&BITS(1500),&SHIFT(1500)                @YM2954P
         LCLB  &ONLY1,&CTIND                                   @YM2954P
         LCLA  &START1,&START2,&END1,&END2                     @YM2954P
         LCLC  &SYMBOL,&EQUSYM                                 @YM2954P
         LCLA  &OP,&COUNT,&BYTE,&EQUCNT                        @YM2954P
         ACTR  100000                                          @YM2954P
.START   AIF   (N'&SYSLIST(&OP+1) LT 3).LOOP                   @YM2954P
         AIF   ('&SYSLIST(&OP+1,3)' EQ 'EQU').LOOP     TEST FOR EQU
  AIF   ('&SYSLIST(&OP+1,3)' EQ '' OR '&SYSLIST(&OP+1,4)' EQ '').ERR1
         AIF   ('&SYSLIST(&OP+1,3)' GT '&SYSLIST(&OP+1,4)').ERR3
&START1  SETA  &SYSLIST(&OP+1,3)        GET START COUNT OF 1   @YM2954P
&START2  SETA  &SYSLIST(&OP+1,4)        GET FIRST END COUNT    @YM2954P
         AGO   .SET2A                   BRANCH AROUND          @YM2954P
.ERR1    MNOTE '**FIRST SYMBOL CONCATENATION INCOMPLETE**'     @YM2954P
         MEXIT                                                 @YM2954P
.SET2A   AIF   ('&SYSLIST(&OP+1,5)' EQ ''AND '&SYSLIST(&OP+1,6)' EQ '' X
               ).SET2                   TEST FOR NO SECOND     @YM2954P
  AIF   ('&SYSLIST(&OP+1,5)' EQ '' OR '&SYSLIST(&OP+1,6)' EQ '').ERR2
         AIF   ('&SYSLIST(&OP+1,5)' GT '&SYSLIST(&OP+1,6)').ERR3
&END1    SETA  &SYSLIST(&OP+1,5)        GET START COUNT OF 2   @YM2954P
&END2    SETA  &SYSLIST(&OP+1,6)        GET END COUNT OF 2     @YM2954P
         AGO   .LOOP                                           @YM2954P
.SET2    ANOP                                                  @YM2954P
&ONLY1   SETB  1                        INDICATE ONLY ONE CONCATENATION
         AGO   .LOOP                                           @YM2954P
.ERR2    MNOTE '**SECOND SYMBOL CONCATENATION INCOMPLETE**'    @YM2954P
         MEXIT                                                 @YM2954P
.ERR3    MNOTE '**START GREATER THAN END CONCATENATION**'      @YM2954P
         MEXIT                                                 @YM2954P
.LOOP    ANOP                                                  @YM2954P
&OP      SETA  &OP+1                                           @YM2954P
         AIF   (&OP GT N'&SYSLIST).DONE      TEST IF ALL DONE  @YM2954P
&ITEMNBR SETA  &ITEMNBR+1                                      @YM2954P
         AIF   ('&SYSLIST(&OP,2)' NE '').OK1                   @YM2954P
         MNOTE '**NULL BIT COUNT FIELD**'                      @YM2954P
         MEXIT                                                 @YM2954P
.OK1     ANOP                                                  @YM2954P
&SYMBOL  SETC  '&SYSLIST(&OP,1)'                               @YM2954P
         AIF   ('&SYMBOL' NE '').OK                            @YM2954P
*              *****     LOG ITEM SYMBOL NOT PROVIDED     *****
         AIF   ('&SYSLIST(&OP,3)' NE 'EQU').CNT                @YM2954P
         AGO   .START                   GET NEXT               @YM2954P
.OK      AIF   (N'&SYSLIST(&OP) LT 3).NO3    TEST FOR OLD FORMAT
         AIF   ('&SYSLIST(&OP,3)' EQ 'EQU').EQU   TEST FOR EQU @YM2954P
         AIF   (&ONLY1).OK2             TEST FOR ONLY ONE CONCAT
&SYMBOL  SETC  '&SYMBOL.&START1.&END1'       GET 1 AND 2 CONCAT
         AGO   .NO3                     BRANCH AROUND          @YM2954P
.OK2     ANOP                                                  @YM2954P
&SYMBOL  SETC  '&SYMBOL.&START1'        GET 1 CONCATENATED     @YM2954P
.NO3     ANOP                                                  @YM2954P
&SYMBOL  EQU   *+&BYTE                                         @YM2954P
&ITEM(&ITEMNBR) SETC '&SYMBOL'          GET LABEL IN GLOBAL    @YM2954P
&BITS(&ITEMNBR) SETA &SYSLIST(&OP,2)                           @YM2954P
&SHIFT(&ITEMNBR) SETA &COUNT-&BYTE*8                           @YM2954P
.CNT     ANOP                                                  @YM2954P
&CTIND   SETB  1                        SET COUNT INDICATOR    @YM2954P
&COUNT   SETA  &COUNT+&SYSLIST(&OP,2)                          @YM2954P
&BYTE    SETA  &COUNT/8                                        @YM2954P
         AIF   (N'&SYSLIST(&OP) LT 3).START  TEST FOR OLD FORMAT
         AIF   (&ONLY1).TSTST           TEST FOR ONLY ONE CONCAT
         AIF   (&END1 EQ &END2).TSTST   TEST FOR SECOND END    @YM2954P
&END1    SETA  &END1+1                  INCREMENT COUNT        @YM2954P
&OP      SETA  &OP-1                    DECREMENT INCREMENT    @YM2954P
         AGO   .LOOP                    GENERATE NEXT          @YM2954P
.TSTST   ANOP                                                  @YM2954P
         AIF   (&START1 EQ &START2).LPDONE   TEST FOR END      @YM2954P
         AIF   (&ONLY1).NSET1           TEST FOR ONLY ONE CONCAT
&END1    SETA  &SYSLIST(&OP,5)          RE-INIT SECOND START COUNT
.NSET1   ANOP                                                  @YM2954P
&OP      SETA  &OP-1                    DECREMENT INDEX        @YM2954P
&START1  SETA  &START1+1                INCREMENT FIRST COUNT  @YM2954P
         AGO   .LOOP                    GO DO NEXT             @YM2954P
.LPDONE  ANOP                                                  @YM2954P
&ONLY1   SETB  0                        CLEAR INDICATOR        @YM2954P
         AGO   .START                   GO TEST FOR MORE SUB-LISTS
.DONE    AIF   (&COUNT-&COUNT/8*8 NE 0).ERR  TEST FOR MULTIPLE OF EIGHT
         AIF   (&CTIND EQ 0).END        NO DS IF NO COUNT      @YM2954P
&COUNT   SETA  &COUNT/8                 GET NUMBER OF BYTES    @YM2954P
&NAME    DS    &COUNT.C                                        @YM2954P
.END     MEXIT                                                 @YM2954P
.ERR     MNOTE '**BIT COUNT FLDS DO NOT TOTAL MULTIPLE OF 8**' @YM2954P
         MEXIT                                                 @YM2954P
.EQU     AIF   ('&SYSLIST(&OP,4)' NE '').EQU1     TEST FOR NULL LABEL
.ERR4    MNOTE '**EQU OPERAND OMITTED OR NOT FOUND**'          @YM2954P
         MEXIT                                                 @YM2954P
.EQU1    AIF   (&SYSLIST(&OP,2) LT 16).EQU2  COUNT OVER FIFTEEN
*****               THE FOLLOWING STATEMENT                *****
*****     NUMBER OF BITS EXCEED 15 - DO NOT USE AS BIN     *****
.EQU2    ANOP                                                  @YM2954P
&EQUCNT  SETA  0                        CLEAR COUNTER          @YM2954P
&EQUSYM  SETC  '&SYSLIST(&OP,4)'        GET EQU OPERAND        @YM2954P
.EQULOP  ANOP                                                  @YM2954P
&EQUCNT  SETA  &EQUCNT+1                INCREMENT INDEX        @YM2954P
         AIF   ('&ITEM(&EQUCNT)' EQ '&EQUSYM').EQUOUT  LABEL FOUND?
         AIF   (&EQUCNT EQ &ITEMNBR).ERR4    ALL TESTED?       @YM2954P
         AGO   .EQULOP                  NO-GET NEXT            @YM2954P
.EQUOUT  ANOP                                                  @YM2954P
&ITEM(&ITEMNBR) SETC '&SYMBOL'          GET LABEL NAME         @YM2954P
&BITS(&ITEMNBR) SETA &SYSLIST(&OP,2)    GET NUMBER OF BITS     @YM2954P
&SHIFT(&ITEMNBR) SETA &SHIFT(&EQUCNT)   GET SHIFT COUNT        @YM2954P
&SYMBOL  EQU   &EQUSYM                  THIS SYMBOL EQUATED    @YM2954P
         AGO   .START                   RETURN FOR NEXT        @YM2954P
         MEND                                                  @YM2954P
         EJECT
         MACRO
&NAME    LINE  &DATA,&LABEL,&SKIP=
.*                            THIS MACRO ESTABLISHES THE MARGINS OR
.*                                 COLUMN SETTINGS FOR EACH LINE. IT
.*                                 GENERATES NECESSARY CARRIAGE CONTROL
.*                                 ENTRIES. LASTLY IT DETERMINES THE
.*                                 NUMBER OF ENTRIES ASSOCIATED WITH
.*                                 THE PREVIOUS LINE AND STORES THAT #
.*                                 INTO THE APPROPRIATE BYTE.
.*                            &DATA(1) - CHARACTER POSITION TO BEGIN
.*                                 DATA.
.*                            &DATA(2) - # OF SPACES BETWEEN SUCCESSIVE
.*                                 DATA COLUMN STARTING CHARACTERS.
.*                            &LABEL(1) - CHAR. POS. TO BEGIN LABELS.
.*                            &LABEL(2) - # SPACES BETWEEN LINE'S LABEL
.*                                 STARTING CHARACTERS.
.*                            &SKIP= - # OF LINES TO ADVANCE CARRIAGE
.*                                 TO BEGIN NEXT PRINTED LINE.
.*                            NEW ENTRIES ARE GENERATED ONLY WHEN
.*                                 NECESSARY. OMISSION OF ITEMS MEANS
.*                                 THEY HAVE NOT CHANGED SINCE PREVIOUS
.*                                 SETTINGS. A LINE MACRO IS REQUIRED
.*                                 FOR EACH PRINTED LINE. IF NO SETTING
.*                                 CHANGES ARE REQUIRED ALL OPERANDS
.*                                 ARE OMITTED IN WHICH CASE ONLY THE
.*                                 # OF ENTRIES FOR THE PREVIOUS LINE
.*                                 IS COMPUTED. THIS MACRO MUST BE THE
.*                                 FIRST MACRO INSTRUCTION ISSUED FOR
.*                                 THE SUBJECT LINE
         GBLA  &DB,&DT,&LB,&LT,&NRENTS
         GBLA  &LASTCC,&INITIAL
         GBLC  &NRENTSX
         GBLC  &CARRCON
         GBLB  &TEST
         LCLA  &S
&NAME    DS    0C
         AIF   (&INITIAL EQ 0).FIRSTLN
         LINEND
         AGO   .NTFIRST
.FIRSTLN ANOP
&NRENTSX SETC  'N&SYSNDX'
&INITIAL SETA  1
N&SYSNDX EQU   *
.NTFIRST ANOP
         DC    AL1(0)
         AIF   ('&DATA(1)' EQ '').CKDTABS
         AIF   (&DATA(1) EQ &DB).CKDTABS
&DB      SETA  &DATA(1)
         AGO   .AA
.CKDTABS AIF   ('&DATA(2)' EQ '').NCDATA
         AIF   (&DATA(2) EQ &DT).NCDATA
         AGO   .CC
.AA      AIF   ('&DATA(2)' EQ '').BB
         AIF   (&DATA(2) EQ &DT).BB
.CC      ANOP
&DT      SETA  &DATA(2)
.*                                 CONVERSIONS.
.*                            &LOGITEM - NAME OF DATA ITEM TO BE
.BB      DC    XL2'FFFE'
         DC    FL1'&DB'
         DC    FL1'&DT'
&NRENTS  SETA  &NRENTS+1
.NCDATA  ANOP
         AIF   ('&LABEL(1)' EQ '').CKLTABS
         AIF   (&LABEL(1) EQ &LB).CKLTABS
&LB      SETA  &LABEL(1)
         AGO   .AAA
.CKLTABS AIF   ('&LABEL(2)' EQ '').NCLABEL
         AIF   (&LABEL(2) EQ &LT).NCLABEL
         AGO   .CCC
.AAA     AIF   ('&LABEL(2)' EQ '').BBB
         AIF   (&LABEL(2) EQ &LT).BBB
.CCC     ANOP
&LT      SETA  &LABEL(2)
.BBB     DC    XL2'FFFF'
         DC    FL1'&LB'
         DC    FL1'&LT'
&NRENTS  SETA  &NRENTS+1
.NCLABEL ANOP
         AIF   ('&SKIP' NE '').CONT
         AIF   (&TEST EQ 0).NOCHANG
&S       SETA  &LASTCC
         AGO   .DEFAULT
.CONT    ANOP
         AIF   (&TEST EQ 0).AB
&S       SETA  &SKIP
.DEFAULT ANOP
         ORG   &CARRCON+3
         DC    AL.3(0),AL.2(&S),AL.3(1)
         ORG
&LASTCC  SETA  &S
&TEST    SETB  0
         AGO   .DD
.AB      AIF   (&SKIP EQ &LASTCC).NOCHANG
A&SYSNDX DC    XL2'FFFB'
         DC    AL.3(0),AL.2(&SKIP),AL.3(1)
         DC    FL1'9'
&LASTCC  SETA  &SKIP
&TEST    SETB  1
&CARRCON SETC  'A&SYSNDX'
&NRENTS  SETA  &NRENTS+1
.DD      ANOP
.NOCHANG ANOP
         MEND
         EJECT
         MACRO
         BIN   &LOGITEM,&SKIP$OR
.*                                 &LOGITEM - NAME OF ITEM IN LOG
.*                                      RECORD DSECT
.*                                 &SKIP$OR - NBR OF SPACES TO SKIP ON
.*                                 MULTIPLE PRINT OR NBR OF SPACES
.*                                      TO BACK UP FROM COLUMN FOR
.*                                      START OF PRINTING. THE LETTER
.*                                      B PRECEEDS THE NUMBER (B5) IF
.*                                      THE LATTER IS DESIRED. OMISSION
.*                                      OF THIS OPERAND FORCES OPTION 2
.*                                      WITH BACKUP SPACING EQUAL TO
.*                                 THE NUMBER OF BITS IN THE ITEM
.*                                 DEFINITION (VIA MACRO 'DSGEN').
.*                            A LIMIT OF 15 BITS IS IMPOSED FOR THE
.*                                 TOTAL NUMBER OF BITS TO PRINT.
         GBLC  &ITEM(1500)
         GBLA  &ITEMNBR,&BITS(1500),&SHIFT(1500),&NRENTS
         GBLC  &DSECT
         LCLB  &B
         LCLA  &IBITS,&NDX,&ISHIFT,&K
         LCLA  &TEMP,&T
         LCLC  &S
.LOOP    ANOP
&NDX     SETA  &NDX+1
         AIF   ('&ITEM(&NDX)' EQ '&LOGITEM').FOUND
         AIF   (&NDX LT &ITEMNBR).LOOP
         MNOTE *,'YOU BLEW IT'
         ROUTINE DUM,SKIPPER
         MEXIT
.FOUND   ANOP
&ISHIFT  SETA  &SHIFT(&NDX)
&IBITS   SETA  &BITS(&NDX)
&T       SETA  &IBITS-1
&B       SETB  0
         AIF   ('&SKIP$OR' EQ '').BACKUP
&K       SETA  K'&SKIP$OR
&B       SETB  ('&SKIP$OR'(1,1) EQ 'B')
&S       SETC  '&SKIP$OR'(&B+1,&K-&B)
&T       SETA  &S
.BACKUP  ANOP
&NRENTS  SETA  &NRENTS+1
&TEMP    SETA  &ISHIFT
A&SYSNDX DC    AL.12(&LOGITEM-&DSECT),XL.4'&TEMP'
         AIF (&IBITS EQ 1 AND &B EQ 0).OUT
         ORG   A&SYSNDX
&B       SETB  1
         DC    AL.12(&LOGITEM-&DSECT),XL.4'C'
         DC    BL.1'&B',AL.7(&T),AL.4(&IBITS),FL.4'&ISHIFT'
.OUT     ANOP
         MEND
         EJECT
         MACRO                                                 @YL02021
         HEX   ,                                               @YL02021
.*                            THIS MACRO FACILITATES GENERATION OF THE
.*                                 TABLE ENTRIES SPECIFYING HEX TYPE
.*                                 CONVERSIONS.                @YL02021
.*                            &SYSLIST(&OP,1) - NAME OF DATA ITEM TO BE
.*                                 CONVERTED                   @YL02021
.*                            &SYSLIST(&OP,2) - # OF SPACES TO SKIP ON
.*                                 MULTIPLE PRINT OR NBR OF SPACES TO
.*                                 BACK UP FROM COLUMN FOR START OF
.*                                 PRINTING. THE LETTER B PRECEEDS THE
.*                                 NUMBER (B8) IF THE LATTER OPTION IS
.*                                 DESIRED. OMISSION OF THIS OPERAND
.*                                 FORCES OPTION 2 WITH BACKUP SPACING
.*                                 EQUAL TO THE NUMBER OF BYTES SPECI-
.*                                 FIED BY THE NEXT OPERAND (TWICE THIS
.*                                 NUMBER IF SUFFIX IS EXPLICITLY OR
.*                                 IMPLICITLY B).              @YL02021
.*                            &SYSLIST(&OP,3) - NUMBER OF BYTES TO
.*                                 PROCESS. THIS NUMBER IS SUFFIXED
.*                                 WITH AN L,R, OR B TO STIPULATE
.*                                 PRINTING OF THE LEFT HALF, RIGHT
.*                                 HALF, OR BOTH HALVES OF THE BYTE
.*                                 RESPECTIVELY. OMISSION OF THIS
.*                                 OPERAND DEFAULTS TO B WITH THE NUM-
.*                                 BER OF BYTES EQUAL TO THE ITEM LNGTH
.*                            A NEW ENTRY IS GENERATED ONLY WHEN NECES-
.*                                 SARY. THIS MACRO MUST BE THE FIRST
.*                                 MACRO INSTRUCTION ISSUED FOR THE
.*                                 SUBJECT LINE(S).            @YL02021
         GBLC &ITEM(1500),&DSECT                               @YL02021
         GBLA &ITEMNBR,&BITS(1500),&SHIFT(1500),&NRENTS        @YL02021
         GBLA  &INITIAL                                        @YL02021
         GBLB  &DIAGTST,&DIAGSET,&DIAGLIN                      @YL02021
         LCLB  &B,&SUB                                         @YL02021
         LCLA  &IBITS,&NDX,&ISHIFT,&K,&T,&CODE,&BYTESP,&OP     @YL02021
         LCLC  &S,&LETTER                                      @YL02021
         AIF   (&DIAGTST EQ 0).NOMSG                           @YL02021
         AIF   (&INITIAL EQ 0).NOMSG                           @YL02021
         AIF   (&DIAGLIN EQ 1).NOMSG                           @YL02021
         MNOTE '**NO LINE ASSOCIATED WITH THIS DATA**'         @YL02021
*****THE FOLLOWING GENERATED FOR TEST PURPOSES*****            @YL02021
*        LINE                                                  @YL02021
         LINE                                                  @YL02021
.NOMSG   ANOP                                                  @YL02021
         AIF   (K'&SYSLIST(1) EQ K'&SYSLIST(1,1)).LOOP         @YL02021
&SUB     SETB  1                                               @YL02021
.LOOP    ANOP                                                  @YL02021
&OP      SETA  &OP+1                                           @YL02021
.LOOP1   ANOP                                                  @YL02021
&NDX     SETA  &NDX+1                                          @YL02021
         AIF   ('&ITEM(&NDX)' EQ '&SYSLIST(&OP,1)').FOUND      @YL02021
         AIF   (&NDX LT &ITEMNBR).LOOP1                        @YL02021
         MNOTE '**LOG ITEM NOT DEFINED**'                      @YL02021
         MEXIT                                                 @YL02021
.FOUND   ANOP                                                  @YL02021
&ISHIFT  SETA  &SHIFT(&NDX)                                    @YL02021
&IBITS   SETA  &BITS(&NDX)                                     @YL02021
         AIF   (&ISHIFT EQ 0 OR &ISHIFT EQ 4).ALIGN            @YL02021
.ERR     MNOTE '**DATA NOT ALLIGNED ON HEX OR BYTE BOUNDARY**' @YL02021
         MEXIT                                                 @YL02021
.ALIGN   ANOP                                                  @YL02021
&CODE    SETA  1                                               @YL02021
         AIF   (&SUB EQ 1).SUBA                                @YL02021
&K       SETA  K'&SYSLIST(3)                                   @YL02021
         AGO   .SUBB                                           @YL02021
.SUBA    ANOP                                                  @YL02021
&K       SETA  K'&SYSLIST(&OP,3)                               @YL02021
.SUBB    ANOP                                                  @YL02021
         AIF   (&IBITS-(&IBITS/4)*4 EQ 0).OK                   @YL02021
         MNOTE '**BIT LENGTH SPECIFICATION INCONSISTENT WITH CONTROL**'
         MEXIT                                                 @YL02021
.OK      AIF   (&SUB EQ 1).SUBC                                @YL02021
         AIF   ('&SYSLIST(3)' EQ '').USEDEFN                   @YL02021
&LETTER  SETC  '&SYSLIST(3)'(&K,1)                             @YL02021
&S       SETC  '&SYSLIST(3)'(1,&K-1)                           @YL02021
         AGO   .SUBD                                           @YL02021
.SUBC    ANOP                                                  @YL02021
         AIF   ('&SYSLIST(&OP,3)' EQ '').USEDEFN               @YL02021
&LETTER  SETC  '&SYSLIST(&OP,3)'(&K,1)                         @YL02021
&S       SETC  '&SYSLIST(&OP,3)'(1,&K-1)                       @YL02021
.SUBD    ANOP                                                  @YL02021
&BYTESP  SETA  &S                                              @YL02021
         AIF   ('&LETTER' EQ 'B').BOTH                         @YL02021
         AIF   ('&LETTER' EQ 'L').LEFT                         @YL02021
&CODE    SETA  2                                               @YL02021
         AGO   .L                                              @YL02021
.LEFT    ANOP                                                  @YL02021
&CODE    SETA  1                                               @YL02021
         AGO   .L                                              @YL02021
.USEDEFN ANOP                                                  @YL02021
&BYTESP  SETA  &IBITS/8                                        @YL02021
.BOTH    AIF   (&ISHIFT NE 0).ERR                              @YL02021
&CODE    SETA  3                                               @YL02021
&T       SETA  &BYTESP*2-1                                     @YL02021
&S       SETC  '&T'                                            @YL02021
.OK2     AIF   (&ISHIFT EQ 0).L                                @YL02021
&CODE    SETA  2                                               @YL02021
.L       ANOP                                                  @YL02021
&B       SETB  1                                               @YL02021
         AIF   (&SUB EQ 1).SUBE                                @YL02021
         AIF   ('&SYSLIST(2)' EQ '').BACKUP                    @YL02021
&K       SETA  K'&SYSLIST(2)                                   @YL02021
&B       SETB  ('&SYSLIST(2)'(1,1) EQ 'B')                     @YL02021
&S       SETC  '&SYSLIST(2)'(&B+1,&K-&B)                       @YL02021
         AGO   .SUBF                                           @YL02021
.SUBE    ANOP                                                  @YL02021
         AIF   ('&SYSLIST(&OP,2)' EQ '').BACKUP                @YL02021
&K       SETA  K'&SYSLIST(&OP,2)                               @YL02021
&B       SETB  ('&SYSLIST(&OP,2)'(1,1) EQ 'B')                 @YL02021
&S       SETC  '&SYSLIST(&OP,2)'(&B+1,&K-&B)                   @YL02021
.SUBF    ANOP                                                  @YL02021
.BACKUP  ANOP                                                  @YL02021
&NRENTS  SETA  &NRENTS+1                                       @YL02021
         AIF   (&BYTESP GT 0 AND &BYTESP LT 16).SUB0           @YL02021
         MNOTE '**NO. OF BYTES OUTSIDE RANGE OF 1-15**'        @YL02021
         MEXIT                                                 @YL02021
.SUB0    AIF   (&SUB EQ 1).SUBG                                @YL02021
         DC    AL.12(&SYSLIST(1)-&DSECT),XL.4'A'               @YL02021
         AGO   .SUBH                                           @YL02021
.SUBG    ANOP                                                  @YL02021
         DC    AL.12(&SYSLIST(&OP,1)-&DSECT),XL.4'A'           @YL02021
.SUBH    ANOP                                                  @YL02021
         DC    BL.1'&B',FL.7'&S',AL.4(&BYTESP),FL.4'&CODE'     @YL02021
.OUT     ANOP                                                  @YL02021
&NDX     SETA  0                                               @YL02021
         AIF   (&SUB EQ 0).OUTA                                @YL02021
         AIF   (&OP LT N'&SYSLIST).LOOP                        @YL02021
.OUTA    ANOP                                                  @YL02021
         MEND                                                  @YL02021
*  ROUTINE MACRO     ROUTINE MACRO     ROUTINE MACRO     ROUTINE MACRO*
         SPACE 2
         MACRO
&NAME    ROUTINE &LOGITEM,&RNAME
         GBLC  &DSECT,&CSECT
         GBLC  &ITEM(1500)
         GBLA  &SHIFT(1500),&ITEMNBR
         GBLA  &NRENTS
         LCLA  &ISHIFT,&NDX
.LOOP    ANOP
&NDX     SETA  &NDX+1
         AIF   ('&ITEM(&NDX)' EQ '&LOGITEM').FOUND
         AIF   (&NDX LT &ITEMNBR).LOOP
         MNOTE *,'LOG ITEM NOT DEFINED'
         MEXIT
.FOUND   ANOP
&ISHIFT  SETA  &SHIFT(&NDX)
&NAME    DC    AL.12(&LOGITEM-&DSECT),XL.4'D'
         DC    AL.4(&ISHIFT),AL.12(&RNAME-&CSECT)
&NRENTS  SETA  &NRENTS+1
         MEND
         EJECT
*  LABEL MACRO     LABEL MACRO     LABEL MACRO     LABEL MACRO        *
         SPACE 2
         MACRO
&NAME    LABEL &LABEL1,&LABEL2,&LABEL3,&LABEL4,&LABEL5,&LABEL6,        C
               &LABEL7,&LABEL8
.*                            THIS MACRO ALLOWS UP TO ACHT LABELS TO
.*                                 BE SPECIFIED FOR A GIVEN LINE. THE
.*                                 LABELS SHOULD BE ENCLOSED IN QUOTA-
.*                                 TION MARKS. THE COLUMN AND LINE END
.*                                 CONTROLS WILL BE INSERTED BY THE
.*                                 MACRO. OMITTED OPERANDS MEAN NO
.*                                 LABEL REQUIRED FOR RESPECTIVE
.*                                 COLUMN. THIS MACRO WILL ALSO ALERT
.*                                 THE PROGRAMMER TO EXACTLY WHERE THE
.*                                 TABLE MUST BE BROKEN IF NECESSARY
.*                                 TO AVOID EXCEEDING THE MAXIMUM LIMIT
         GBLC &LABELS(2000)
         GBLC  &LBL(100)
         GBLA  &LBLCTR(100)
         GBLA  &LABELNR
         GBLA  &NRENTS,&LPTR
         LCLC  &MARGIN,&TACK
         LCLC  &TEXT
         LCLA  &OP,&K,&START,&NRCHAR,&REMAIN
&MARGIN  SETC  '*'
         AIF   ('&NAME' EQ '').LOOPOUT
&LPTR    SETA  &LPTR+1
&LBL(&LPTR) SETC '&NAME'
&LBLCTR(&LPTR) SETA &LABELNR+1
.LOOPOUT ANOP
&OP      SETA  &OP+1
&K       SETA  K'&SYSLIST(&OP)
         AIF (&K GE 2).NORM
&K       SETA  2
.NORM    ANOP
&START   SETA  2
         AIF (&OP LT N'&SYSLIST).NOTLAST
&MARGIN  SETC  '$'
.NOTLAST ANOP
&NRCHAR  SETA  8
&TACK    SETC  ''
.LOOPIN  ANOP
&REMAIN  SETA  &K-&START
         AIF (&REMAIN GE 8).MORE
&TACK    SETC  '&MARGIN'
&NRCHAR  SETA  &REMAIN
.MORE    ANOP
&TEXT    SETC  ''
         AIF (&REMAIN EQ 0).ENDTEXT
&TEXT    SETC  '&SYSLIST(&OP)'(&START,&NRCHAR)
.ENDTEXT ANOP
&LABELNR SETA  &LABELNR+1
&LABELS(&LABELNR) SETC '&TEXT'.'&TACK'
&START   SETA  &START+8
         AIF ('&TACK' EQ '').LOOPIN
         AIF ('&TACK' EQ '*').LOOPOUT
         MEND
         SPACE 2
         MACRO
         LSTART
.*                            THIS MACRO IS ISSUED WHEN THE LABEL AREA
.*                                 OF THE TABLE IS TO BEGIN.
         GBLC &LABELS(2000)
         GBLA  &LABELNR
         GBLC  &LBL(100)
         GBLA  &LBLCTR(100)
         LCLA  &NDX,&CTR
         LINEND
&CTR     SETA  1
.LOOP    ANOP
&NDX     SETA  &NDX+1
         AIF   (&LBLCTR(&CTR) NE &NDX).NOLBL
&LBL(&CTR) DC  C'&LABELS(&NDX)'
&CTR     SETA  &CTR+1
         AGO   .LOOPCTL
.NOLBL   ANOP
         DC    C'&LABELS(&NDX)'
.LOOPCTL AIF   (&NDX LT &LABELNR).LOOP
         MEND
         SPACE 2
         MACRO
         LINEND
.*                            THIS MACRO IS USED ONLY BY THE LINE
.*                                 MACRO TO SET THE NUMBER OF ENTRIES
.*                                 ASSOCIATED WITH EACH LINE.
         GBLA  &NRENTS
         GBLC &NRENTSX
         ORG   &NRENTSX
         DC    FL1'&NRENTS'
         ORG
&NRENTS  SETA  0
B&SYSNDX EQU   *
&NRENTSX SETC  'B&SYSNDX'
         MEND
         GBLC  &DSECT,&CSECT
IFCE2860 CSECT
&CSECT   SETC  'IFCE2860'
&DSECT   SETC  'C2860'
C2860    DSECT
DUM      EQU   *
         DSGEN (XKEY,8),(XRELN,8),(XSWS8,9),(XSWS9,1),(XSWS10,1),      C
               (XSWS11,1),                                             C
               (XSWS12,1),(XSWS13,1),(XSWS14,1),(XSWS15,1)
         DSGEN (XDUM1,13),(XCRH,1),(XDUM3,18)                  @Z30CIMC
         DSGEN (XDATE,32)
         DSGEN (XTIME,32)
         DSGEN (XDUM2,8),(XSER,24)
         DSGEN (XMOD,16),(MCEL,16)
         DSGEN (XJOBN,64)
         DSGEN (XAIO1,16),(XAIO2,16),(XAIO3,16),(XAIO4,16)
         DSGEN (XAIO5,16),(XAIO6,16),(XAIO7,16),(XAIO8,16)
         DSGEN (XFCCWCC,8),(XFCCWDA,24),(XFCCWFL,8),(XFCCW0,8),        C
               (XFCCWCT,16)
         DSGEN (XCSWK,8),(XCSWCA,24)
         DSGEN (XCSWUS0,1),(XCSWUS1,1),(XCSWUS2,1),(XCSWUS3,1),        *
               (XCSWUS4,1),(XCSWUS5,1),(XCSWUS6,1),(XCSWUS7,1),        *
               (XCSWCS0,1),(XCSWCS1,1),(XCSWCS2,1),(XCSWCS3,1),        *
               (XCSWCS4,1),(XCSWCS5,1),(XCSWCS6,1),(XCSWCS7,1),        *
               (XCSWCT,16)
         DSGEN (XECSW,32)
         DSGEN (XDEVT1,16),(XDEVT2,16)
         DSGEN (XCHID,8),(XCUA,24)
         DSGEN (XMPIN,32)
         ORG   XMPIN                                           @YL02021
         DSGEN (VCUA,16),(VLGSZ,16)                            @YL02021
SL130    DSGEN (CLWKEY1,4),(DUM61,4),(CLWCADR,24)
         SPACE 2
SL130A   DSGEN (DUM62,8),(CLWSTAT,8),(CLWCOUNT,16)
         SPACE 2
SL138    DSGEN (CLWBREG,8),(CLWCREG,8),(CLWFREG,5),(CLWCHAD,3),        X
               (CLWUARG,8)
         SPACE 2
SL138A   DSGEN (CLWDARG,24),(CLWSIMRG,8)
         SPACE 2
SL140    DSGEN (CLWARGFL,1),(CLWBRGFL,1),(CLWCHCML,1),(CLWSEQ1,1),     X
               (CLWSEQ2,1),(CLWSEQ3,1),(CLWSEQ4,1),(CLWSEQ5,1),        X
               (CLWCCWV,1),(CLWREAD,1),(CLWWRITE,1),(CLWSETUP,1),      X
               (CLWTIC,1),(CLWTICHZ,1),(CLWPIRPT,1),(CLWCDALT,1),      X
               (CLWLWT,1),(CLWBCCBT,1),(CLWBCOLT,1),(CLWBCTGR,1),      X
               (CLWBCREG,1),(CLWBIT3,1),(CLWBIT2,1),                   X
               (CLWBIT1,1),(CLWCLOCK,8)
         SPACE 2
SL140A   DSGEN (CLWOPIN,1),(DUM63,1),                                  X
               (CLWADOLT,1),(CLWSLOLT,1),(CLWSEROT,1),(CLWCOMOT,1),    X
               (CLWSTIO,1),(CLWHTIO,1),                        @YM6454PX
               (CLWIDA00,1),(CLWDIN00,1),(CLWSTO00,1),         @YM6454PX
               (DUM64,2),(CLWSTOCK,1),(DUM65,2),               @YM6454PX
               (CLWPSPR,1),(CLWPOCAR,1),(CLWP1CAR,1),(CLWP2CAR,1),     X
               (CLWPDIB,1),(CLWPOCRG,1),(CLWP1CRG,1),(CLWP2CRG,1),     X
               (CLWPUAR,1),(CLWP0DAR,1),(CLWP1DAR,1),(CLWP2DAR,1),     X