         TITLE 'IFCETUL1 MODEL  145 MACHINE CHECK EDIT'
*                                  DSGEN MACRO     DSGEN MACRO
*                                  DSGEN MACRO     DSGEN MACRO
         SPACE 2
         MACRO
&NAME    DSGEN
.*       THIS  MACRO               GENERATES ONE DSECT WORD
.*       FORMATTED FOR             THE SUBJECT LOG RECORD
.*       EACH  OPERAND             HAS TWO SUB LISTS. THE
.*       FIRST IS                  THE NAME OF THE LOG ITEM
.*       WHILE THE                 SECOND IS THE # OF BITS TO
.*       ALLOCATE FOR              THIS ITEM. ITEMS MUST
.*       BE    DEFINED             CONTIGUOUSLY WITHOUT GAPS
.*       UNUSED BIT                GROUPS MUST BE GIVEN
.*       DUMMY NAMES.              THE NAMES PROVIDED FOR
.*       THE   LOG                 ITEMS MAY THEN BE USED IN
.*       THE   CONVERSION          MACRO INSTRUCTIONS.
         GBLC  &ITEM(2000)
         GBLA  &ITEMNBR,&BITS(2000),&SHIFT(2000)
         LCLB  &ONLY1,&CTIND
         LCLA  &START1,&START2,&END1,&END2
         LCLC  &SYMBOL,&EQUSYM
         LCLA  &OP,&COUNT,&BYTE,&EQUCNT
         ACTR  100000
.START   AIF   (N'&SYSLIST(&OP+1) LT 3).LOOP
         AIF   ('&SYSLIST(&OP+1,3)' EQ 'EQU').LOOP     TEST FOR EQU
  AIF   ('&SYSLIST(&OP+1,3)' EQ '' AND '&SYSLIST(&OP+1,4)' EQ '').ERR1
  AIF   ('&SYSLIST(&OP+1,3)' EQ '' OR '&SYSLIST(&OP+1,4)' EQ '').ERR1
         AIF   ('&SYSLIST(&OP+1,3)' GT '&SYSLIST(&OP+1,4)').ERR3
&START1  SETA  &SYSLIST(&OP+1,3)   GET START COUNT OF 1
&START2  SETA  &SYSLIST(&OP+1,4)   GET FIRST END COUNT
         AGO   .SET2A              BRANCH AROUND
.ERR1    MNOTE '**FIRST SYMBOL CONCATENATION INCOMPLETE**'
         MEXIT
.SET2A   AIF   ('&SYSLIST(&OP+1,5)' EQ ''AND '&SYSLIST(&OP+1,6)' EQ '' X
               ).SET2                   TEST FOR NO SECOND
  AIF   ('&SYSLIST(&OP+1,5)' EQ '' OR '&SYSLIST(&OP+1,6)' EQ '').ERR2
         AIF   ('&SYSLIST(&OP+1,5)' GT '&SYSLIST(&OP+1,6)').ERR3
&END1    SETA  &SYSLIST(&OP+1,5)   GET START COUNT OF 2
&END2    SETA  &SYSLIST(&OP+1,6)   GET END COUNT OF 2
         AGO   .LOOP
.SET2    ANOP
&ONLY1   SETB  1                   INDICATE ONLY ONE CONCATENATION
         AGO   .LOOP
.ERR2    MNOTE '**SECOND SYMBOL CONCATENATION INCOMPLETE**'
         MEXIT
.ERR3    MNOTE '**START GREATER THAN END CONCATENATION**'
         MEXIT
.LOOP    ANOP
&OP      SETA  &OP+1
         AIF   (&OP GT N'&SYSLIST).DONE      TEST IF ALL DONE
&ITEMNBR SETA  &ITEMNBR+1
         AIF   ('&SYSLIST(&OP,2)'  NE '').OK1
         MNOTE '**NULL BIT COUNT FIELD**'
         MEXIT
.OK1     ANOP
&SYMBOL  SETC  '&SYSLIST(&OP,1)'
         AIF   ('&SYMBOL'          NE '').OK
*              *****     LOG ITEM SYMBOL NOT PROVIDED     *****
         AIF   ('&SYSLIST(&OP,3)'  NE 'EQU').CNT
         AGO   .START              GET NEXT
.OK      AIF   (N'&SYSLIST(&OP) LT 3).NO3    TEST FOR OLD FORMAT
         AIF   ('&SYSLIST(&OP,3)'  EQ 'EQU').EQU   TEST FOR EQU
         AIF   (&ONLY1).OK2        TEST FOR ONLY ONE CONCAT
&SYMBOL  SETC  '&SYMBOL.&START1.&END1' GET 1 AND 2 CONCAT
         AGO   .NO3                BRANCH AROUND
.OK2     ANOP
&SYMBOL  SETC  '&SYMBOL.&START1'   GET 1 CONCATENATED
.NO3     ANOP
&SYMBOL  EQU   *+&BYTE
&ITEM(&ITEMNBR) SETC '&SYMBOL'     GET LABEL IN GLOBAL
&BITS(&ITEMNBR) SETA &SYSLIST(&OP,2)
&SHIFT(&ITEMNBR) SETA &COUNT-&BYTE*8
.CNT     ANOP
&CTIND   SETB  1                   SET COUNT INDICATOR
&COUNT   SETA  &COUNT+&SYSLIST(&OP,2)
&BYTE    SETA  &COUNT/8
         AIF   (N'&SYSLIST(&OP) LT 3).START  TEST FOR OLD FORMAT
         AIF   (&ONLY1).TSTST      TEST FOR ONLY ONE CONCAT
         AIF   (&END1 EQ &END2).TSTST   TEST FOR SECOND END
&END1    SETA  &END1+1             INCREMENT COUNT
&OP      SETA  &OP-1               DECREMENT INCREMENT
         AGO   .LOOP               GENERATE NEXT
.TSTST   ANOP
         AIF   (&START1            EQ &START2).LPDONE   TEST FOR END
         AIF   (&ONLY1).NSET1      TEST FOR ONLY ONE CONCAT
&END1    SETA  &SYSLIST(&OP,5)     RE-INIT SECOND START COUNT
.NSET1   ANOP
&OP      SETA  &OP-1               DECREMENT INDEX
&START1  SETA  &START1+1           INCREMENT FIRST COUNT
         AGO   .LOOP               GO DO NEXT
.LPDONE  ANOP
&ONLY1   SETB  0                   CLEAR INDICATOR
         AGO   .START              GO TEST FOR MORE SUB-LISTS
.DONE    AIF   (&COUNT-&COUNT/8*8  NE 0).ERR  TEST FOR MULTIPLE OF 8
         AIF   (&CTIND             EQ 0).END        NO DS IF NO COUNT
&COUNT   SETA  &COUNT/8            GET NUMBER OF BYTES
&NAME    DS    &COUNT.C
.END     MEXIT
.ERR     MNOTE '**BIT COUNT FLDS DO NOT TOTAL MULTIPLE OF 8**'
         MEXIT
.EQU     AIF   ('&SYSLIST(&OP,4)'  NE '').EQU1     TEST FOR NULL LABEL
.ERR4    MNOTE '**EQU OPERAND OMITTED OR NOT FOUND**'
         MEXIT
.EQU1    AIF   (&SYSLIST(&OP,2)    LT 16).EQU2  COUNT OVER FIFTEEN
*****               THE FOLLOWING STATEMENT                *****
*****     NUMBER OF BITS EXCEED 15 - DO NOT USE AS BIN     *****
.EQU2    ANOP
&EQUCNT  SETA  0                   CLEAR COUNTER
&EQUSYM  SETC  '&SYSLIST(&OP,4)'   GET EQU OPERAND
.EQULOP  ANOP
&EQUCNT  SETA  &EQUCNT+1           INCREMENT INDEX
         AIF   ('&ITEM(&EQUCNT)'   EQ '&EQUSYM').EQUOUT  LABEL FOUND?
         AIF   (&EQUCNT            EQ &ITEMNBR).ERR4    ALL TESTED?
         AGO   .EQULOP             NO-GET NEXT
.EQUOUT  ANOP
&ITEM(&ITEMNBR) SETC '&SYMBOL'     GET LABEL NAME
&BITS(&ITEMNBR) SETA &SYSLIST(&OP,2) GET NUMBER OF BITS
&SHIFT(&ITEMNBR) SETA &SHIFT(&EQUCNT) GET SHIFT COUNT
&SYMBOL  EQU   &EQUSYM             THIS SYMBOL EQUATED
         AGO   .START              RETURN FOR NEXT
         MEND
*
*
         MACRO
&NAME    LINE  &DATA,&LABEL,&SKIP=
.*       THIS  MACRO               ESTABLISHES THE MARGINS OR
.*       COLUMN SETTINGS           FOR EACH LINE. IT
.*       GENERATES NECESSARY       CARRIAGE CONTROL
.*       ENTRIES. LASTLY           IT DETERMINES THE
.*       NUMBER OF                 ENTRIES ASSOCIATED WITH
.*       THE   PREVIOUS            LINE AND STORES THAT #
.*       INTO  THE                 APPROPRIATE BYTE.
.*
.*       &DATA(1) -                CHARACTER POSITION TO
.*       BEGIN DATA.
.*
.*       &DATA(2) -                # OF SPACES BETWEEN
.*       SUCCESSIVE DATA           COLUMN STARTING
.*       CHARACTERS.
.*
.*       &LABEL(1) -               CHARACTER POSITION
.*       TO    BEGIN               LABELS.
.*
.*       &LABEL(2) -               # OF SPACES BETWEEN
.*       LINE'S LABEL              STARTING CHARACTERS.
.*
.*       &SKIP= -                  # OF LINES TO ADVANCE
.*       CARRIAGE TO               BEGIN NEXT PRINTED LINE.
.*
.*       NEW   ENTRIES             ARE GENERATED ONLY WHEN
.*       NECESSARY. OMISSION       OF ITEMS MEANS
.*       THEY  HAVE                NOT CHANGED SINCE PREVIOUS
.*       SETTINGS. A               LINE MACRO IS REQUIRED
.*       FOR   EACH                PRINTED LINE. IF NO SETTING
.*       CHANGES ARE               REQUIRED ALL OPERANDS
.*       ARE   OMITTED             IN WHICH CASE ONLY THE
.*       #     OF                  ENTRIES FOR THE PREVIOUS LINE
.*       IS    COMPUTED.           THIS MACRO MUST BE THE
.*       FIRST MACRO               INSTRUCTION ISSUED FOR
.*       THE   SUBJECT             LINE.
         GBLA  &DB,&DT,&LB,&LT,&NRENTS
         GBLA  &LASTCC,&INITIAL
         GBLC  &NRENTSX
         GBLC  &CARRCON
         GBLB  &TEST
         LCLA  &S
&NAME    DS    0C
         AIF   (&INITIAL EQ 0).FIRSTLN
         LINEND
         AGO   .NTFIRST
.FIRSTLN ANOP
&NRENTSX SETC  'N&SYSNDX'
&INITIAL SETA  1
N&SYSNDX EQU   *
.NTFIRST ANOP
         DC    AL1(0)
         AIF   ('&DATA(1)' EQ '').CKDTABS
         AIF   (&DATA(1) EQ &DB).CKDTABS
&DB      SETA  &DATA(1)
         AGO   .AA
.CKDTABS AIF   ('&DATA(2)' EQ '').NCDATA
         AIF   (&DATA(2) EQ &DT).NCDATA
         AGO   .CC
.AA      AIF   ('&DATA(2)' EQ '').BB
         AIF   (&DATA(2) EQ &DT).BB
.CC      ANOP
&DT      SETA  &DATA(2)
.BB      DC    XL2'FFFE'
         DC    FL1'&DB'
         DC    FL1'&DT'
&NRENTS  SETA  &NRENTS+1
.NCDATA  ANOP
         AIF   ('&LABEL(1)' EQ '').CKLTABS
         AIF   (&LABEL(1) EQ &LB).CKLTABS
&LB      SETA  &LABEL(1)
         AGO   .AAA
.CKLTABS AIF   ('&LABEL(2)' EQ '').NCLABEL
         AIF   (&LABEL(2) EQ &LT).NCLABEL
         AGO   .CCC
.AAA     AIF   ('&LABEL(2)' EQ '').BBB
         AIF   (&LABEL(2) EQ &LT).BBB
.CCC     ANOP
&LT      SETA  &LABEL(2)
.BBB     DC    XL2'FFFF'
         DC    FL1'&LB'
         DC    FL1'&LT'
&NRENTS  SETA  &NRENTS+1
.NCLABEL ANOP
         AIF   ('&SKIP' NE '').CONT
         AIF   (&TEST EQ 0).NOCHANG
&S       SETA  &LASTCC
         AGO   .DEFAULT
.CONT    ANOP
         AIF   (&TEST EQ 0).AB
&S       SETA  &SKIP
.DEFAULT ANOP
         ORG   &CARRCON+3
         DC    AL.3(0),AL.2(&S),AL.3(1)
         ORG
&LASTCC  SETA  &S
&TEST    SETB  0
         AGO   .DD
.AB      AIF   (&SKIP EQ &LASTCC).NOCHANG
A&SYSNDX DC    XL2'FFFB'
         DC    AL.3(0),AL.2(&SKIP),AL.3(1)
         DC    FL1'9'
&LASTCC  SETA  &SKIP
&TEST    SETB  1
&CARRCON SETC  'A&SYSNDX'
&NRENTS  SETA  &NRENTS+1
.DD      ANOP
.NOCHANG ANOP
         MEND
*
*
***********************************************************************
*
*
         MACRO
         BIN   ,
.*       &SYSLIST(&OP,1) -         NAME OF LOG ITEM
.*       RECORD DSECT
.*       $SYSLIST(&OP,2) -         NBR OF SPACES
.*       TO    SKIP                ON MULTIPLE
.*       PRINT OR                  NBR OF SPACES
.*       TO    BACK                UP FROM COLUMN FOR
.*       START OF                  PRINTING. THE LETTER
.*       B     PRECEEDS            THE NUMBER (B5) IF
.*       THE   LATTER              IS DESIRED. OMISSION
.*       OF    THIS                OPERAND FORCES OPTION 2
.*       WITH  BACKUP              SPACING EQUAL TO
.*       THE   NUMBER              OF BITS IN THE ITEM
.*       DEFINITION (VIA           MACRO 'DSGEN').
.*       A     LIMIT               OF 15 BITS IS IMPOSED FOR THE
.*       TOTAL NUMBER              OF BITS TO PRINT.
         GBLA  &INITIAL
         GBLB  &DIAGTST,&DIAGSET,&DIAGLIN
         GBLC  &ITEM(2000),&DSECT
         GBLA  &BITS(2000),&ITEMNBR,&SHIFT(2000),&NRENTS
         LCLB  &B,&SUB
         LCLA  &IBITS,&NDX,&ISHIFT,&K
         LCLA  &TEMP,&T,&OP
         LCLC  &S
         ACTR  500000
         AIF   (&DIAGTST EQ 0).NOMSG
         AIF   (&INITIAL EQ 0).NOMSG
         AIF   (&DIAGLIN EQ 1).NOMSG
         MNOTE '**NO LINE ASSOCIATED WITH THIS DATA**'
*****THE FOLLOWING GENERATED FOR TEST PURPOSES*****
*        LINE
         LINE
.NOMSG   ANOP
         AIF   (K'&SYSLIST(1) EQ K'&SYSLIST(1,1)).LOOP
&SUB     SETB  1
.LOOP    ANOP
&OP      SETA  &OP+1
.LOOP1   ANOP
&NDX     SETA  &NDX+1
         AIF   ('&ITEM(&NDX)' EQ '&SYSLIST(&OP,1)').FOUND
         AIF   (&NDX LT &ITEMNBR).LOOP1
         MNOTE '**LOG ITEM NOT DEFINED**'
         MEXIT
.FOUND   ANOP
&ISHIFT  SETA  &SHIFT(&NDX)
&IBITS   SETA  &BITS(&NDX)
         AIF   (&SUB EQ 1).SUB00
         AIF   ('&SYSLIST(3)' EQ '').SETT
&IBITS   SETA  &SYSLIST(3)
         AGO   .SETT
.SUB00   AIF   ('&SYSLIST(&OP,3)'  EQ '').SETT
&IBITS   SETA  &SYSLIST(&OP,3)
.SETT    ANOP
&T       SETA  &IBITS-1
&B       SETB  0
         AIF   (&IBITS GT 0 AND &IBITS LT 16).SUB0
         MNOTE '**NO. OF BITS OUTSIDE RANGE OF 1-15**'
         MEXIT
.SUB0    AIF   (&SUB EQ 1).SUBA
         AIF   ('&SYSLIST(2)' EQ '').BACKUP
&K       SETA  K'&SYSLIST(2)
&B       SETB  ('&SYSLIST(2)'(1,1) EQ 'B')
&S       SETC  '&SYSLIST(2)'(&B+1,&K-&B)
         AGO   .SUBB
.SUBA    ANOP
         AIF   ('&SYSLIST(&OP,2)'  EQ '').BACKUP
&K       SETA  K'&SYSLIST(&OP,2)
&B       SETB  ('&SYSLIST(&OP,2)'(1,1) EQ 'B')
&S       SETC  '&SYSLIST(&OP,2)'(&B+1,&K-&B)
.SUBB    ANOP
&T       SETA  &S
.BACKUP  ANOP
&NRENTS  SETA  &NRENTS+1
&TEMP    SETA  &ISHIFT
         AIF   (&IBITS NE 1 OR &B NE 0).BIN2
         DC    AL.12(&SYSLIST(&OP,1)-&DSECT),XL.4'&TEMP'
         AGO   .OUT
.BIN2    AIF   (&SUB EQ 1).BIN2A
         AIF   ('&SYSLIST(2)' NE '').BIN3
         AGO   .BIN2B
.BIN2A   AIF   ('&SYSLIST(&OP,2)'  NE '').BIN3
.BIN2B   ANOP
&B       SETB  1
.BIN3    ANOP
         DC    AL.12(&SYSLIST(&OP,1)-&DSECT),XL.4'C'
         DC    BL.1'&B',AL.7(&T),AL.4(&IBITS),FL.4'&ISHIFT'
.OUT     ANOP
&NDX     SETA  0
         AIF   (&SUB EQ 0).OUTA
         AIF   (&OP LT N'&SYSLIST).LOOP
.OUTA    ANOP
         MEND
*
*
***********************************************************************
*
*
         MACRO
         HEX   &LOGITEM,&SKIP$OR,&BYTES
.*
.*       THIS  MACRO               FACILITATES GENERATION
.*       OF    THE                 TABLE ENTRIES SPECIFYING HEX
.*       TYPE  CONVERSIONS.
.*
.*       &LOGITEM -                NAME OF DATA ITEM TO BE
.*       CONVERTED.
.*
.*       &SKIP$OR -                NUMBER OF SPACES TO SKIP
.*       ON    MULTIPLE            PRINT OF NUMBER OF
.*       SPACES TO                 BACK UP FROM COLUMN FOR
.*       START OF                  PRINTING. THE LETTER B
.*       PRECEEDS THE              NUMBER (B8) IF THE
.*       LATTER OPTION             IS DESIRED. OMISSION
.*       OF    THIS                OPERAND FORCES OPTION 2 WITH
.*       BACKUP SPACING            EQUAL TO THE NUMBER
.*       OF    BYTES               SPECIFIED BY THE NEXT
.*       OPERAND (TWICE            THIS NUMBER IF SUFFIX
.*       IS    EXPLICITLY          OR IMPLICITLY B).
.*
.*       &BYTES -                  NUMBER OF TOTAL INPUT BYTES
.*       TO    PROCESS.            THIS NUMBER IS SUFFIXED
.*       WITH  A                   L,R, OR B TO STIPULATE
.*       PRINTING OF               THE LEFT HALF, RIGHT
.*       HALF, OR                  BOTH HALVES OF THE BYTE
.*       RESPECTIVELY. OMISSION    OF THIS
.*       OPERAND DEFAULTS          TO B WITH THE
.*       NUMBER OF                 BYTES EQUAL TO THE ITEM
.*       LENGTH.
.*
.*       A     NEW                 ENTRY IS GENERATED ONLY WHEN
.*       NECESSARY. THIS           MACRO MUST BE THE
.*       FIRST MACRO               INSTRUCTION ISSUED FOR
.*       THE   SUBJECT             LINE(S)
         GBLC  &ITEM(2000),&DSECT
         GBLA  &ITEMNBR,&BITS(2000),&SHIFT(2000),&NRENTS
         LCLB  &B
         LCLA  &IBITS,&NDX,&ISHIFT,&K,&T,&CODE,&BYTESP
         LCLC  &S,&LETTER
.LOOP    ANOP
&NDX     SETA  &NDX+1
         AIF   ('&ITEM(&NDX)' EQ '&LOGITEM').FOUND
         AIF   (&NDX LT &ITEMNBR).LOOP
         MNOTE '**LOG ITEM NOT FOUND**'
         MEXIT
.FOUND   ANOP
&ISHIFT  SETA  &SHIFT(&NDX)
&IBITS   SETA  &BITS(&NDX)
&CODE    SETA  1
&K       SETA  K'&BYTES
         AIF   (&IBITS-(&IBITS/4)*4 EQ 0).OK
         MNOTE 'BIT LENGTH SPECIFICATION INCONSISTENT WITH CONTROL'
         MEXIT
.OK      AIF   ('&BYTES' EQ '').USEDEFN
&LETTER  SETC  '&BYTES'(&K,1)
&S       SETC  '&BYTES'(1,&K-1)
&BYTESP  SETA  &S
         AIF   ('&LETTER' EQ 'B').BOTH
         AIF   ('&LETTER' EQ 'L').LEFT
&CODE    SETA  2
         AGO   .L
.LEFT    ANOP
&CODE    SETA  1
         AGO   .L
         AIF   (&ISHIFT EQ 0 OR &ISHIFT EQ 4).OK2
.ERR     MNOTE 'DATA NOT ALIGNED ON HEX OR BYTE BOUNDARY'
         MEXIT
.USEDEFN ANOP
&BYTESP  SETA  &IBITS/8
.BOTH    AIF   (&ISHIFT NE 0).ERR
&CODE    SETA  3
&T       SETA  &BYTESP*2-1
&S       SETC  '&T'
.OK2     AIF   (&ISHIFT EQ 0).L
&CODE    SETA  2
.L       ANOP
&B       SETB  1
         AIF   ('&SKIP$OR' EQ '').BACKUP
&K       SETA  K'&SKIP$OR
&B       SETB  ('&SKIP$OR'(1,1) EQ 'B')
&S       SETC  '&SKIP$OR'(&B+1,&K-&B)
.BACKUP  ANOP
&NRENTS  SETA  &NRENTS+1
         DC    AL.12(&LOGITEM-&DSECT),XL.4'A'
         DC    BL.1'&B',FL.7'&S',AL.4(&BYTESP),FL.4'&CODE'
.OUT     ANOP
         MEND
*
*
***********************************************************************
*
*
         MACRO
&NAME    ROUTINE &LOGITEM,&RNAME
         GBLC  &ITEM(2000)
         GBLA  &SHIFT(2000),&ITEMNBR
         GBLC  &DSECT,&CSECT
         GBLA  &NRENTS
         LCLA  &ISHIFT,&NDX
.LOOP    ANOP
&NDX     SETA  &NDX+1
         AIF   ('&ITEM(&NDX)' EQ '&LOGITEM').FOUND
         AIF   (&NDX LT &ITEMNBR).LOOP
         MNOTE 'LOG ITEM NOT DEFINED'
         MEXIT
.FOUND   ANOP
&ISHIFT  SETA  &SHIFT(&NDX)
&NAME    DC    AL.12(&LOGITEM-&DSECT),XL.4'D'
         DC    AL.4(&ISHIFT),AL.12(&RNAME-&CSECT)
&NRENTS  SETA  &NRENTS+1
         MEND
*
*
***********************************************************************
*
*
         MACRO
&NAME    LABEL &LABEL1,&LABEL2,&LABEL3,&LABEL4,&LABEL5,&LABEL6,        C
               &LABEL7,&LABEL8
.*       THIS  MACRO               ALLOWS UP TO ACHT LABELS TO
.*       BE    SPECIFIED           FOR A GIVEN LINE. THE
.*       LABELS SHOULD             BE ENCLOSED IN QUOTA-
.*       TION  MARKS.              THE COLUMN AND LINE END
.*       CONTROLS WILL             BE INSERTED BY THE
.*       MACRO. OMITTED            OPERANDS MEAN NO
.*       LABEL REQUIRED            FOR RESPECTIVE
.*       COLUMN. THIS              MACRO WILL ALSO ALERT
.*       THE   PROGRAMMER          TO EXACTLY WHERE THE
.*       TABLE MUST                BE BROKEN IF NECESSARY
.*       TO    AVOID               EXCEEDING THE MAXIMUM LIMIT
         GBLC  &LABELS(2000)
         GBLC  &LBL(100)
         GBLA  &LBLCTR(100)
         GBLA  &LABELNR
         GBLA  &NRENTS,&LPTR
         LCLC  &MARGIN,&TACK
         LCLC  &TEXT
         LCLA  &OP,&K,&START,&NRCHAR,&REMAIN
&MARGIN  SETC  '*'
         AIF   ('&NAME' EQ '').LOOPOUT
&LPTR    SETA  &LPTR+1
&LBL(&LPTR) SETC '&NAME'
&LBLCTR(&LPTR) SETA &LABELNR+1
.LOOPOUT ANOP
&OP      SETA  &OP+1
&K       SETA  K'&SYSLIST(&OP)
         AIF   (&K GE 2).NORM
&K       SETA  2
.NORM    ANOP
&START   SETA  2
         AIF   (&OP LT N'&SYSLIST).NOTLAST
&MARGIN  SETC  '$'
.NOTLAST ANOP
&NRCHAR  SETA  8
&TACK    SETC  ''
.LOOPIN  ANOP
&REMAIN  SETA  &K-&START
         AIF   (&REMAIN GE 8).MORE
&TACK    SETC  '&MARGIN'
&NRCHAR  SETA  &REMAIN
.MORE    ANOP
&TEXT    SETC  ''
         AIF   (&REMAIN EQ 0).ENDTEXT
&TEXT    SETC  '&SYSLIST(&OP)'(&START,&NRCHAR)
.ENDTEXT ANOP
&LABELNR SETA  &LABELNR+1
&LABELS(&LABELNR) SETC '&TEXT'.'&TACK'
&START   SETA  &START+8
         AIF   ('&TACK' EQ '').LOOPIN
         AIF   ('&TACK' EQ '*').LOOPOUT
         MEND
         SPACE 2
         MACRO
         LSTART
.*       THIS  MACRO               IS ISSUED WHEN THE LABEL AREA
.*       OF    THE                 TABLE IS TO BEGIN.
         GBLC  &LABELS(2000)
         GBLA  &LABELNR
         GBLC  &LBL(100)
         GBLA  &LBLCTR(100)
         LCLA  &NDX,&CTR
         LINEND
&CTR     SETA  1
.LOOP    ANOP
&NDX     SETA  &NDX+1
         AIF   (&LBLCTR(&CTR) NE &NDX).NOLBL
&LBL(&CTR) DC  C'&LABELS(&NDX)'
&CTR     SETA  &CTR+1
         AGO   .LOOPCTL
.NOLBL   ANOP
         DC    C'&LABELS(&NDX)'
.LOOPCTL AIF   (&NDX LT &LABELNR).LOOP
         MEND
*
*
***********************************************************************
*
*
         MACRO
         LINEND
.*       THIS  MACRO               IS USED ONLY BY THE LINE
.*       MACRO TO                  SET THE NUMBER OF ENTRIES
.*       ASSOCIATED WITH           EACH LINE.
         GBLA  &NRENTS
         GBLC  &NRENTSX
         ORG   &NRENTSX
         DC    FL1'&NRENTS'
         ORG
&NRENTS  SETA  0
B&SYSNDX EQU   *
&NRENTSX SETC  'B&SYSNDX'
         MEND
*
*
***********************************************************************
*
*
         MACRO
&NAME    BIND  &Z1,&Z2,&Z3,&Z4
.*       THIS  MACRO               HELPS COLLOCATE BITS IN
.*       DIFFERENT AREAS           OF THE LOG TO MAKE
.*       THEM  ACCESSIBLE          TO THE 'HEX' MACRO.
.*       EACH  OPERAND             HAS 3 SUBFIELDS:1 SPE-
.*       CIFIES BY                 LOGITEM NAME THE BYTE TO
.*       BE    REFERENCED,2        GIVES THE NUMBER OF
.*       UNDESIRED BITS            TO THE LEFT OF THE
.*       LOG   ITEM'S FIRST BIT,3 GIVES THE LOG
.*       ITEM'S LENGTH             IN BITS. THE MACRO
.*       CAUSES THE                INFORMATION TO BE STORED &
.*       CONTROL IS                GIVEN TO THE 'BINDER' ROU-
.*       TINE,WHICH STORES         THE COLLOCATED
.*       BITS  RIGHT-JUSTIFIED     IN THE FOUR-
.*       BYTE  WORK                AREA INSERTED IN THE LOG,
.*       BEGINNING AT              'LOGWORK1'
         GBLC  &DSECT
         LCLA  &OP
&NAME    BC    15,BINDER
.LOOP    ANOP
&OP      SETA  &OP+1
         DC    AL.16(&SYSLIST(&OP,1)-&DSECT)
         DC    FL1'&SYSLIST(&OP,2)'
         DC    FL1'&SYSLIST(&OP,3)'
         AIF   (&OP LT N'&SYSLIST).LOOP
         ORG   &NAME+4
         DC    AL.4(&OP),AL.12(&SYSLIST(1,1)-&DSECT)
         ORG
         MEND
         MACRO
&NAME    CKPARITY &PAR1,&PAR2,&PAR3,&PAR4,&PAR5,&PAR6
.*       THIS  MACRO               HELPS SET THE LOCATION
.*       CONTROLS FOR              A SPECIAL ROUTINE TO
.*       CHECK PARITY              ON ITEMS FROM THE LOG
.*       ALREADY ASSEMBLED         FOR PRINTING IN THE
.*       PRINT BUFFER              THAT HAS BEEN SET UP.
.*       EACH  OPERAND             (UP TO SIX) HAS THREE
.*       SUBFIELDS:1 GIVES         THE DISPLACEMENT
.*       FROM  PRINT               POSITION ZERO TO BEGIN
.*       THE   PARITY              CHECK(I.E.,LOC. OF PARITY
.*       BIT   IN                  BUFFER);2 GIVES THE NUMBER OF
.*       POSITIONS TO              CHECK AGAINST THE PARITY
.*       BIT   (ASSUMING           1 SPACE BETWEEN PAR BIT
.*       AND   THE                 FIRST POSITION TO BE CHECKED)
.*       3     GIVES               THE NUMBER OF SEQUENTIAL PAR.
.*       CHECKS OF                 THIS SORT TO MAKE,ASSUMING
.*       TWO   SPACES              BETWEEN THE LAST POSITION
.*       CHECKED AND               NEXT PAR. BIT POSITION
         LCLA  &OP
&NAME    BC    15,PARPUT
         DC    X'0'
.LOOP    ANOP
&OP      SETA  &OP+1
         DC    FL1'&SYSLIST(&OP,1)'
         DC    FL1'&SYSLIST(&OP,2)'
         DC    FL1'&SYSLIST(&OP,3)'
         AIF   (&OP LT N'&SYSLIST).LOOP
         ORG   &NAME+4
         DC    FL1'&OP'
         ORG
         MEND
         GBLC  &DSECT,&CSECT
IFCETUL1 CSECT
&CSECT   SETC  'IFCETUL1'
&DSECT   SETC  'DSECT145'
DSECT145 DSECT
         DS    0F
         DSGEN (XKEY,8),(XRELN,8),(XSWS0,8),(XSWS8,1),(XSWS9,1),       C
               (XSWS10,1),(XSWS11,1),                                  *
               (XSWS12,1),(XSWS13,1),(XSWS14,1),(XSWS15,1)
         DSGEN (LOGWORK1,8),(LOGWORK2,6),(LOGWORK3,2),(LOGWRK3A,4),    *
               (LOGWRK3B,3),(LOGWRK3C,1),(LOGWORK4,8)
         DSGEN (XDATE,32)
         DSGEN (XTIME,32)
         DSGEN (XDUM2,8),(XSER,24)
         DSGEN (XCPUMOD,16),(XDUM3,16)
         DSGEN (XPGMID,64)
         ORG   XPGMID
         DSGEN (RECLNT,32),(WAITST,32)
         DSGEN (XJOBID,64)
         ORG   XJOBID
         DSGEN (MCETEF,1,0,7),(MCEMEF,1,0,7),(MCEIEF,1,0,7),           X
               (MCESEF,1,0,7),(PDAR0,1,0,7),(PDAR1,1,0,7),             X
               (PDAR2,1,0,7),(WDSIZE,8)
         DSGEN (XMCKPSW,64)
         DSGEN (MCIC,1,0,47),(EXTDLOG,16)
         DSGEN (RESRVDB,64)
         DSGEN (FAILSTA,32)
         DSGEN (CTRLWD,16),(ERCORCD,8),(RGCODE,1,24,31)
         DSGEN (DUMMY1,32)
         DSGEN (MCAR,32)
         DSGEN (MCDR1,32)
         DSGEN (MCDR2,32)
         DSGEN (MANTLTH1,32)
         DSGEN (MANTLTH2,32)
         DSGEN (MCRR1,32)
         DSGEN (MCRR2,32)
         DSGEN (ICM90,32)
         DSGEN (STATUS,32)
         DSGEN (FDUM1,32)
         DSGEN (FDUM2,32)
         DSGEN (FDUM3,32)
         DSGEN (FDUM4,32)
         DSGEN (FDUM5,32)
         DSGEN (FDUM6,32)
         DSGEN (FDUM7,32)
         DSGEN (FDUM8,32)
         DSGEN (FDUM9,32)
         DSGEN (FDUM10,32)
         DSGEN (FDUM11,32)
         DSGEN (FDUM12,32)
         DSGEN (FDUM13,32)
         DSGEN (FDUM14,32)
FLOATPTS DSGEN (FP0,32)
         DSGEN (FP1,32)
         DSGEN (FP2,32)
         DSGEN (FP3,32)
         DSGEN (FP4,32)
         DSGEN (FP5,32)
         DSGEN (FP6,32)
         DSGEN (FP7,32)
GENPURPR DSGEN (GPR0,32)
         DSGEN (GPR1,32)
         DSGEN (GPR2,32)
         DSGEN (GPR3,32)
         DSGEN (GPR4,32)
         DSGEN (GPR5,32)
         DSGEN (GPR6,32)
         DSGEN (GPR7,32)
         DSGEN (GPR8,32)
         DSGEN (GPR9,32)
         DSGEN (GP10,32)
         DSGEN (GP11,32)
         DSGEN (GP12,32)
         DSGEN (GP13,32)
         DSGEN (GP14,32)
         DSGEN (GP15,32)
         DSGEN (CTR0,32)
         DSGEN (CTR1,32)
         DSGEN (CTR2,32)
         DSGEN (CTR3,32)
         DSGEN (CTR4,32)
         DSGEN (CTR5,32)
         DSGEN (CTR6,32)
         DSGEN (CTR7,32)
         DSGEN (CTR8,32)
         DSGEN (CTR9,32)
         DSGEN (CR10,32)
         DSGEN (CR11,32)
         DSGEN (CR12,32)
         DSGEN (CR13,32)
         DSGEN (CR14,32)
         DSGEN (CR15,32)
         DSGEN (RETCNTUN,4),(RETCNT2H,4),(RETUNUS,16),(NONRETRY,8)
         DSGEN (MCHRG00,1),(MCHRG01,1),(MCHRG02,1),(MCHRG03,1),        X
               (MCHRG04,1),(MCHRG05,1),(MCHRG06,1),(MCHRG07,1),        X
               (MCHRG08,1),(MCHRG09,1),(MCHRG10,1),(MCHRG11,1),        X
               (MCHRG12,1),(MCHRG13,1),(MCHRG14,1),(MCHRG15,1),        X
               (MCHRG16,1),(MCHRG17,1),(MCHRG18,1),(MCHRG19,1),        X
               (MCHRG20,1),(MCHRG21,1),(MCHRG22,1),(MCHRG23,1),        X
               (MCHRG24,1),(MCHRG25,1),(MCHRG26,1),(MCHRG27,1),        X
               (MCHRG28,1),(MCHRG29,1),(MCHRG30,1),(MCHRG31,1)
         DSGEN (MCHRGB00,1),(MCHRGB01,1),(MCHRGB02,1),(MCHRGB03,1),    X
               (MCHRGB04,1),(MCHRGB05,1),(MCHRGB06,1),(MCHRGB07,1),    X
               (MCHRGB08,1),(MCHRGB09,1),(MCHRGB10,1),(MCHRGB11,1),    X
               (MCHRGB12,1),(MCHRGB13,1),(MCHRGB14,1),(MCHRGB15,1),    X
               (MCHRGB16,1),(MCHRGB17,1),(MCHRGB18,1),(MCHRGB19,1),    X
               (MCHRGB20,1),(MCHRGB21,1),(MCHRGB22,1),(MCHRGB23,1),    X
               (MCHRGB24,1),(MCHRGB25,1),(MCHRGB26,1),(MCHRGB27,1),    X
               (MCHRGB28,1),(MCHRGB29,1),(MCHRGB30,1),(MCHRGB31,1)
         DSGEN (RTYREG1,32),(RTYREG2,32)
         DSGEN (REGUNU,8),                                             X
               (HREG0,1),(HREG1,1),(HREG2,1),(HREG3,1),(HREG4,1),      X
               (HREG5,1),(HREG6,1),(HREG7,1),(RETRG23,16)
         DSGEN (RTYRG400,1),(RTYRG401,1),(RTYRG402,1),(RTYRG403,1),    X
               (RTYRG404,1),(RTYRG405,1),(RTYRG406,1),(RTYRG407,1),    X
               (RTYRG408,1),(RTYRG409,1),(RTYRG410,1),(RTYRG411,1),    X
               (RTYRG412,1),(RTYRG413,1),(RTYRG414,1),(RTYRG415,1),    X
               (RTRUNSED,1),(RTYRG417,3),(RTYRG420,3),(RTYEXP,1),      C
               (RTYUNSD,1),                                            C
               (RTYRG425,3),(RTYRG428,3),(RTYNOTUS,1)
         DSGEN (CTRLDWD,32)
         DSGEN (SYSREG00,1),(SYSREG01,1),(SYSREG02,1),(SYSREG03,1),    X
               (SYSREG04,1),(SYSREG05,1),(SYSREG06,1),(SYSREG07,1),    X
               (SYSREG08,1),(SYSREG09,1),(SYSREG10,1),(SYSREG11,1),    X
               (SYSREG12,1),(SYSREG13,1),(SYSREG14,1),(SYSREG15,1),    X
               (SYSREG16,1),(SYSREG17,1),(SYSREG18,1),(SYSREG19,1),    X
               (SYSREG20,1),(SYSREG21,1),(SYSREG22,1),(SYSREG23,1),    X
               (SYSREG24,1),(SYSREG25,1),(SYSREG26,1),(SYSREG27,1),    X
               (SYSREG28,1),(SYSREG29,1),(SYSREG30,1),(SYSREG31,1)
         DSGEN (IREG,8),(IREGB,24)
         DSGEN (UREGA1,2),(UREGA2,2),(UREGA3,4),(UREGA4,4),(UREGA5,4), X
               (UREGC1,8),(UREGC2,8)
         DSGEN (WREG,32)
         DSGEN (VREG,32)
         DSGEN (XREG,32)
         DSGEN (RREG,32)
         DSGEN (YREG,32)
         DSGEN (QREG,32)
         DSGEN (IBUG,32)
         DSGEN (TRRG,32)
         DSGEN (SPAR,32)
         DSGEN (SNRG,8),(SNRA,8),(SNRB,16)
         DSGEN (PNRG,16),(RLPAGE,16)
         DSGEN (WKRG,32)
         DSGEN (NPRGXST,16),                                           X
               (EXPDST00,1),(EXPDST01,1),(EXPDST02,1),(EXPDST03,1),    X
               (EXPDST04,1),(EXPDST05,1),(EXPDST06,1),(EXPDST07,1),    X
               (EXPDST08,1),(EXPDST09,1),(EXPDST10,1),(EXPDST11,1),    X
               (EXPDST12,1),(EXPDST13,1),(EXPDST14,1),(EXPDST15,1)
         DSGEN (DMREG,32),(RWREG,32)
         DSGEN (CPUREG00,1),(CPUREG01,1),(CPUREG02,1),(CPUREG03,1),    X
               (CPUREG04,1),(CPUREG05,1),(CPUREG06,1),(CPUREG07,1),    X
               (CPUREG16,8),(NEWRELTB,8),(OLDRELTB,8)
         DSGEN (PSWCTL00,1),(PSWCTL01,1),(PSWCTL02,1),(PSWCTL03,1),    X
               (PSWCTL04,1),(PSWCTL05,1),(PSWCTL06,1),(PSWCTL07,1),    X
               (PSWCTL08,1),(PSWCTL09,1),(PSWCTL10,1),(PSWCTL11,1),    X
               (PSWCTL12,1),(PSWCTL13,1),(PSWCTL14,1),(PSWCTL15,1),    X
               (PSWCTL16,1),(PSWCTL17,1),(PSWCTL18,1),(PSWCTL19,1),    X
               (PSWCTL20,1),(PSWCTL21,1),(PSWCTL22,1),(PSWCTL23,1),    X
               (PSWCTL24,1),(PSWCTL25,1),(PSWCTL26,1),(PSWCTL27,1),    X
               (PSWCTL28,1),(PSWCTL29,1),(PSWCTL30,1),(PSWCTL31,1)
         DSGEN (SHCTL00,2),(SHCTL02,2),(SHCTL04,4),(SHCTL10,1),        X
               (SHCTL11,1),(SHCTL12,2),(SHCTL14,4),(SHCTL20,8),        X
               (SHCTL30,8)
         DSGEN (SHHI,32),(SHLO,32)
         ORG   SHCTL12
         DSGEN (MULTCTR,8)
         DSGEN (DARLNGTH,16),(,48)
         DSGEN (SYSSTAT,1,0,7)
         DSGEN (AREADT,1,0,15)
         DSGEN (ERRTYPE,1,0,7)
         DSGEN (RMSACTN,1,0,7)
         DSGEN (RMSINFO,1,0,7)
         DSGEN (WAITSUFF,8),(,8),(MCHFSAR,32),(,32)
         DSGEN (TRNSMOD,32,0,7)
         DSGEN (MCHPDR,1,0,7,0,7)
         DSGEN (MCHFSAV,32),(MCHFSEAV,32),(MCHPDARI,32),(MCHTCBCU,32)
IFCETUL1 CSECT
         USING *,9
         USING DSECT145,R2
ENTRYPTR DC    A(STARTER)
TABLNAME DC    CL8'IFCETUL1'
REG9     DC    F'0'
LP       DC    F'0'
SKIPPER  BR    14
R0       EQU   0
R1       EQU   1
R2       EQU   2
R3       EQU   3
R4       EQU   4
R5       EQU   5
R6       EQU   6
R7       EQU   7
R8       EQU   8
R9       EQU   9
R10      EQU   10
R11      EQU   11
R12      EQU   12
H01      EQU   X'01'
H13      EQU   X'13'
H20      EQU   X'20'
R13      EQU   13
R14      EQU   14
R15      EQU   15
HEX00    EQU   X'00'
HEX08    EQU   X'08'
HEX40    EQU   X'40'
HEX80    EQU   X'80'