         MACRO
&NAME    LEAVE &EQ,&RC=
         GBLC  &LV,&SP
&NAME    LR    2,13
         L     13,4(13)
         AIF   ('&RC' EQ '').L0
         LA    15,&RC         LOAD THE RETURN CODE
.L0      STM   15,1,16(13)  STORE RETURN REGS
         AIF   ('&LV' EQ '').L1  ANYTHING TO FREE?
         FREEMAIN R,LV=&LV,SP=&SP,A=(2)  FREE THE AREA
.L1      RETURN (14,12),T     RETURN FROM WHENCE WE CAME
         AIF   ('&EQ' NE 'EQ').L4  REGISTERS TOO?
***********************************************************************
*                                                                     *
*        REGISTER EQUATES                                             *
*                                                                     *
***********************************************************************
         SPACE 1
***********************************************************************
*                                                                     *
*        FIXED POINT REGISTERS                                        *
*                                                                     *
***********************************************************************
         SPACE 1
R0       EQU   0        *USED BY O.S.
R1       EQU   1        *USED BY O.S. // ADDRESS OF PARAMETER LIST
R2       EQU   2
R3       EQU   3
R4       EQU   4
R5       EQU   5
R6       EQU   6
R7       EQU   7
R8       EQU   8
R9       EQU   9
R10      EQU   10
R11      EQU   11
R12      EQU   12
R13      EQU   13       *USED BY O.S. // SAVE-AREA ADDRESS
R14      EQU   14       *USED BY O.S. // RETURN ADDRESS
R15      EQU   15       *USED BY O.S. // ENTRY-PT ADDR, RETURN CODE
         SPACE 1
***********************************************************************
*                                                                     *
*        FLOATING POINT REGISTERS                                     *
*                                                                     *
***********************************************************************
         SPACE 1
F0       EQU   0
F2       EQU   2
F4       EQU   4
F6       EQU   6
.L4      MEND
