N2QP     TITLE 'HJSTP - JES2/NJE RELEASE 2 QUEUE PROCESSOR'
         MACRO
&NAME    #RETURN &REGS,&RC=0
&NAME    DS    0H
         L     R13,4(R13)          RESTORE ORIGINAL BASE
         RETURN  &REGS,RC=&RC
         MEND
         SPACE 3
         MACRO
         $HASPCB &DOC=NO
         GBLC  &PRINT,&GEN,&DATA
         PUSH  PRINT
         PRINT GEN
         $HCT  DOC=&DOC
         $LRC  DOC=&DOC
         $BUFFER DOC=&DOC
         $JQE  DOC=&DOC
         $JCT  DOC=&DOC
         $TAB  DOC=&DOC
         $IOT  DOC=&DOC
         $PDDB DOC=&DOC
         $JOE  DOC=&DOC
         $JOT  DOC=&DOC
         $CAT  DOC=&DOC                                           SPR2
         $PCE  DOC=&DOC                                           SPR2
*        $HQR  DOC=&DOC                                           SPR2
*        $HQT  DOC=&DOC                                           SPR2
         POP   PRINT
         PRINT &GEN,&DATA
         MEND
         SPACE 4
HJSTN2QP CSECT
         HJCPYRIT
         COPY  $HASPGEN
         $SYSPARM  (OFF,GEN,NODATA,NO,YES)
         TITLE 'HJSTP - JES2/NJE RELEASE 2 QUEUE PROCESSOR'
         HJENTRY GENHJCT=NOGEN,GENSYMB=NOGEN,BASE=(HJBASE1,HJBASE2)
         EJECT
******************************
* REGISTER USAGE             *
*        R3=REQUEST BLOCK PTR*
*        R4=CURJQE           *
*                            *
*                            *
******************************
         SPACE 3
*  DETERMINE FUNCTION REQUESTED BY CALLER
         LR    R3,R1               SAVE REQUEST BLOCK PTR
         USING QPINT,R3
         CLI   QPFCTN,QPFJBRQ      JBRQ-GET JOB REQUEST
         BE    N2JBRQ
         CLI   QPFCTN,QPFOPEN      OPEN DATA SET REQUEST
         BE    N2OPEN
         CLI   QPFCTN,QPFGET      GET REQUEST
         BE    N2GET
         LA    R2,*                PT TO ERROR LOC
         B     N2BADEND
         TITLE 'JOB SELECT FUNCTION'
* REQUEST TO SELECT NEXT JOB OR TO SETUP A JOB
N2JBRQ   DS    0H
*  CHECK REQUEST TYPE
         CLI   QPTYPE,QPTNEXT      SELECT NEXT JOB?
         BE    N2JBNEXT
         CLI   QPTYPE,QPTSETUP     SETUP CURRENT JOB?
         BE    N2JBSET
         LA    R2,*                PT TO ERROR LOC
         B     N2BADEND
         SPACE 3
N2JBNEXT DS    0H                  LOCATE NEXT JOB IN JOBQ
         MVI   N2FLAGS,X'00'       RESET N2QP FLAGS
         XC    N2CKPJOE,N2CKPJOE   RESET PTR TO CHKPT JOE (DMD SETUP)
*  FREE BUFFERS USED FOR PREVIOUS JOB
         ICM   R1,15,CTCBBFRS      GET 1ST CTL BLK BAT
         BZ    N2GETJQE            BR 1ST TIME THRU (NO BATS YET)
         USING CBBDSECT,R1
         LA    R0,CBBFRADR         POINT TO FIRST BUFFER ENTRY
         ST    R0,CBBFRNXT         INVALIDATE BUFFERS
*                                  BY MAKING NEXT=FIRST
         DROP  R1
N2GETJQE ICM   R4,15,N2CURJQE       STEP TO NEXT JQE IN JOBQ
         BNZ   N2NXJQE        GO IF NOT 1ST JQE
         L     R4,N2$JOBQ     1ST JQE
         B     N2JQEST        GO STORE
N2NXJQE  DS    0H             NOT 1ST ,STEP TO NEXT
         USING JQEDSECT,R4
         LA    R4,JQELNGTH(R4)
N2JQEST  DS    0H
         ST    R4,N2CURJQE             AND SAVE
*  CHECK IF AT END OF JOBQ
         C     R4,N2EOJQ           ADDR OF JOBQ END SET BY N2QI
         BNL   N2JBEOQ             GO IF DONE
*  FILL IN JOB HDRS FROM THE JQE
         CLI   JQETYPE,X'00'       IGNORE IF FREE JQE
         BE    N2NXJQE
         CLI   JQETYPE,X'FF'       IGNORE IF JQE NEVER USED
         BE    N2NXJQE
         MVC   JHJOBNAM,JQEJNAME   JOB NAME TO JOB HDR
         MVC   JHJOBNO,JQEJOBNO    JOB NUMBER
         MVC   JHINJBNO,JQEINJNO   INITIAL JOB NUMBER
         L     R1,JQEPRTRT         JOB PRINT ROUTING               SPR2
         BAL   R14,N2RTECNV        CONVERT TO MNEMONIC
         MVC   JHPRRMT,N2ROUTE     PRINT REMOTE
         MVC   JHPRNODE,N2NODE     PRINT NODE
         L     R1,JQEPUNRT         JOB PUNCH ROUTING               SPR2
         BAL   R14,N2RTECNV
         MVC   JHPURMT,N2ROUTE     PUNCH REMOTE
         MVC   JHPUNODE,N2NODE     PUNCH NODE
         SLR   R1,R1               CLEAR REG
         ICM   R1,3,JQEXEQND       JOB EXEC NODE (NO EXEC REMOTE)  SPR2
         BAL   R14,N2RTSP2         CONVERT TO MNEMONIC (NEW BAL)   SPR2
         MVC   JHXEQNOD,N2NODE     EXECUTION NODE
         MVC   JHPRTY,JQEPRIO      PRIORITY
* SET JOB TYPE BASED ON JOB NUMBER
         MVI   JHJOBTYP,C'J'       ASSUME BATCH JOB
*        CLC   JQEJOBNO,=AL2(10000) BATCH JOB NUMBERS LT 10K      SPR2
*        BL    N2JSTAT             CHK JOB STATUS FOR BATCH JOB   SPR2
         TM    JQEFLAG3,QUEJOB     TEST FOR BATCH JOB             SPR2
         BZ    N2JSTAT             IF ZEROES THEN BATCH           SPR2
         MVI   JHJOBTYP,C'T'       ASSUME TSO USER
*        CLC   JQEJOBNO,=AL2(20000) TSO JOBS GTE 20001            SPR2
*        BNL   N2JSTAT                                            SPR2
         TM    JQEFLAG3,QUETSU     TEST FOR TSU   JOB             SPR2
         BO    N2JSTAT             IF ONES   THEN TIME SHARERER   SPR2
         MVI   JHJOBTYP,C'S'       10001 LE STC LE 19999
N2JSTAT  DS    0H
* TEST JQE STATUS TO DETERMINE JOB STATUS
         TM    JQEFLAGS,$PURGE     CHECK FOR PURGED JOB
         BO    N2PURQ
         TM    JQETYPE,$XEQ+$XMIT  EXECUTION OR JOB XMTR QUEUE?
         BNZ   N2XEQCK              BR IF EITHER
         TM    JQETYPE,$INPUT+$RECEIVE  IS JOB STILL COMING IN?
         BNZ   N2INQ                      YES, GET NEXT JOB
         TM    JQETYPE,$OUTPUT+$HARDCPY QUEUED FOR OUTPUT?
         BZ    N2JERR1              NO, THEN JQETYPE IS IN ERROR
         MVI   JHPRCSTG,JHPRCQO    SET QUEUED FOR OUTPUT
         B     N2XEQCKX            GO TEST HOLD STATUS
N2PURQ   DS    0H                  JOB IS BEING PURGED
         MVI   JHPRCSTG,JHPRCPRG
         B     N2JHDRX
N2INQ    DS    0H                  JOB WAS BEING READ
         MVI   JHPRCSTG,JHPRCINP
         B     N2JHDRX
N2OUTQ   DS    0H                  SET QUEUED FOR OUTPUT
         MVI   JHPRCSTG,JHPRCQO
         B     N2XEQCKX            GO TEST HOLD STATUS
         SPACE 3
N2XEQCK  DS    0H                  JOB ON EXEC OR JOB XMTR QUEUE
         CLI   JQETYPE,$XEQ        IF JOB IS WAITING FOR CONVERSION
         BNE   N2XMITCK             (BR IF NOT)
         MVI   JHPRCSTG,JHPRCQX        THEN SET WAIT FOR XEQ
         B     N2XEQCKX
N2XMITCK DS    0H
         CLI   JQETYPE,$XMIT       TEST FOR QUEUED FOR JOB XMTR
         BNE   N2XEQCK1             BR IF NOT
         MVI   JHPRCSTG,JHPRCXMT    IF SO, SET PROCESSING STAGE
         B     N2XEQCKX              AND CONTINUE
N2XEQCK1 DS    0H                  DETERMINE JOB TYPE
         TM    JQEFLAGS,QUEBUSY    IF QUEBUSY NOT = 0
         BNZ   N2INXEQ               THEN JOB IS IN EXECUTION
         MVI   JHPRCSTG,JHPRCQX     ELSE JOB IS WAITING EXECUTION
         B     N2XEQCK2            GO CHK JOB CLASS
N2INXEQ  DS    0H                  JOB IN EXECUTION
         MVI   JHPRCSTG,JHPRCIX
N2XEQCK2 DS    0H                  CHK TYPE OF USER
         CLI   JQETYPE,$XEQ+$INPUT IF TSO USER
         BE    N2XEQCKX
         CLI   JQETYPE,$XEQ+$XMIT IF STC ID
         BE    N2XEQCKX
         MVC   JHJOBCLS,JQETYPE   SET CLASS FROM JQE
         OI    JHJOBCLS,X'80'
N2XEQCKX DS    0H                  END OF XEQ CHK
         TM    JQEFLAGS,QUEHOLDA+QUEHOLD1 JOB HELD?
         BZ    *+8
         OI    JHFLGS1,JH1HOLD
N2JHDRX  DS    0H                  END OF SET JOB HDR
* NORMAL EXIT
N2JNEXIT DS    0H
         #RETURN (14,12),RC=0
         SPACE 3
*  END OF JOB QUEUE EXIT
N2JBEOQ  DS    0H
         L     R14,QPJNJF          PICK UP NO JOB FOUND EXIT
         #RETURN (2,12),RC=0
         DROP  R4
         TITLE 'JOB SETUP FUNCTION'
*******************************************
*  SETUP JOB POINTED TO BY CURJQE         *
*******************************************
N2JBSET  DS    0H
         L     R4,N2CURJQE         JQE SELECTED BY N2JBNEXT
         USING JQEDSECT,R4
* GET JCT FOR THIS JOB
* FIRST GET A BUFFER FOR JCT
         HJCALL GETBUF             GET CTL BLK BUFFER
         ST    R1,SPBFR            SAVE ADDR FOR SPIO
         S     R1,=A(BUFSTART-BUFDSECT)  ADJUST FOR JCT ADDRESSABILITY
         ST    R1,N2CURJCT         SAVE FOR QP JOB PROCESSING
         MVC   SPMTTR,JQETRAK      JCT PTR TO SPIO MTTR
         XC    CTSPECBS,CTSPECBS    CLEAR SYNCH ECB
         POST  CTQPECBS,C'SBR'     ASK SPIO TO READ JCT
N2JWAIT  DS    0H                  WAIT FOR SPIO POST
         WAIT  ECB=CTSPECBS        WAIT FOR I/O
         XC    CTSPECBS,CTSPECBS     CLEAR ECB
*  CHECK IF GOOD JCT
         CLI   SPFLGS,BFRERR       CHECK FOR ERROR RETURN CODE
         BE    N2JERR2
         L     R5,N2CURJCT         JCT PTR
         USING JCTDSECT,R5
         CLC   JCTID,=CL4'JCT'     CHECK CTL BLK ID
         BNE   N2JERR2
         SPACE 3
* GET ALL IOTS
         ICM   R7,15,JCTIOT        1ST IOT
         BZ    N2JERR4              GO IF NONE
         HJCALL GETBUF             GET CTL BLK BUFFER
         S     R1,=A(BUFSTART-BUFDSECT)  OFFSET FOR DATA NOT RECORDED
         ST    R1,N2JCTIOT         NEED TO LOCATE 1ST IOT LATER
         B     N2IOTLPA            GO TO SET UP FOR IOT READ
N2IOTLP  DS    0H                  LOOP TO GET IOTS
         HJCALL GETBUF             GET CTL BLK BUFFER
         S     R1,=A(BUFSTART-BUFDSECT)  OFFSET TO SKIP IOB
*  NOTE: R6 POINTS TO PREVIOUS IOT
         USING IOTDSECT,R6
         ST    R1,IOTIOT           SAVE IN-CORE PTR IN PREV IOT
N2IOTLPA DS    0H                  ENTER HERE ON 1ST IOT
         LR    R6,R1               R6 = NEW IOT PTR
*                                  POINTS TO IOT BEING READ
         A     R1,=A(BUFSTART-BUFDSECT)  NEED ACTUAL ADDR FOR SPIO
         ST    R1,SPBFR            INPUT BUFFER
         ST    R7,SPMTTR           SET SPIO MTTR
         POST  CTQPECBS,C'SBR'     ASK SPIO TO READ IOT
         WAIT  ECB=CTSPECBS        WAIT FOR I/O
         XC    CTSPECBS,CTSPECBS     CLEAR ECB
         CLI   SPFLGS,BFRERR       CHECK FOR ERROR RETURN CODE
         BE    N2JERR3
         CLC   JCTJBKEY,IOTJBKEY   MAKE SURE SAME JOB
         BNE   N2JERR3
         ICM   R7,15,IOTIOTTR      NEXT IOT
         BNZ   N2IOTLP             GET NEXT IF ANY
         TM    N2FLAGS,N2SPIOT     CHK IF SPIN IOTS PROCESSED
         BO    N2IOTX              GO IF YES
         OI    N2FLAGS,N2SPIOT     SET SPIN IOT INDICATOR
         ICM   R7,15,JCTSPIOT      1ST SPIN IOT
         BNZ   N2IOTLP             PROCESS SPIN IOTS
N2IOTX   DS    0H                  END OF IOTS
         XC    IOTIOT,IOTIOT       MAKE SURE END OF CHAIN
         DROP  R4
         DROP  R6
         SPACE 3
*  BRING IN ALL HQTS IF HARDCOPY STATUS PROCESSING TO BE DONE
*        TM    CTFLGS1,CT1UNDDS    TEST FOR HRDCPY STATUS PROC
*        BZ    N2HQTX               AND BR IF NOT BEING USED
*        OC    JCTHQRCT,JCTHQRCT   ANY HELD DS'S?
*        BNZ   *+14                 BR IF SO
*        XC    JCTHQT,JCTHQT        OTHERWISE, ZERO HQT PTR
*        B     N2HQTX                AND SKIP HQT PROCESSING
*        ICM   R7,15,JCTHQT        GET MTTR FOR 1ST HQT
*        BZ    N2JERR4              ERROR IF NONE
*        HJCALL  GETBUF            GET A BFR FOR HQT
*        S     R1,=A(BUFSTART-BUFDSECT)  ALLOW FOR BFR HDR
*        ST    R1,JCTHQT           SAVE PTR IN JCT
*        B     N2HQTLPA            BR INTO HQT LOAD LOOP
*2HQTLP  DS    0H
*        HJCALL  GETBUF            GET A BFR FOR NXT HQT
*        S     R1,=A(BUFSTART-BUFDSECT)  ALLOW FOR BFR HDR
*        USING HQTDSECT,R6         ESTABLISH HQT ADDRESSABILITY
*        ST    R1,HQTHQT           SAVE CHAIN PTR IN PREV HQT
*2HQTLPA DS    0H                  ENTRY FOR 1ST HQT
*        LR    R6,R1               SWITCH TO NEW HQT
*        A     R1,=A(BUFSTART-BUFDSECT)  ACTUAL ADDR FOR SPIO
*        ST    R1,SPBFR            SET BFR PTR FOR SPIO
*        ST    R7,SPMTTR            AND MTTR, TOO
*        POST  CTQPECBS,C'SBR'     TELL SPIO TO GET HQT
*        WAIT  ECB=CTSPECBS         AND WAIT FOR IT TO HAPPEN
*        XC    CTSPECBS,CTSPECBS   CLEAR ECB
*        CLI   SPFLGS,BFRERR       CHECK FOR I/O ERROR
*        BE    N2JERR3              BR ON ERROR
*        CLC   JCTJBKEY,HQTJBKEY   COMPARE CTL BLK KEYS
*        BNE   N2JERR3              ERROR IF NOT EQ
*        ICM   R7,15,HQTHQT        GET CHAIN FIELD
*        BNZ   N2HQTLP              AND BR IF MORE HQTS
*  FALL THRU WHEN ALL HQTS IN STORAGE
         SPACE 1
N2HQTX   DS    0H                  END OF HQT PROCESSING
*        DROP  R6                  KILL HQT ADDRESSABILITY
         SPACE 3
* CLEAR JCL AND DATA SET BUFFERS
         L     R1,CTDSBFRS         DATA SET BUFFERS
         L     R0,CTDSBRND         LAST DS BFR PTR
         BAL   R14,N2BFCLR         GO CLEAR DATA SET BUFFERS
         L     R1,CTJCLBFR         SET TO CLEAR JCL BUFFERS
         L     R0,CTJCLBND         LAST JCL BFR
         BAL   R14,N2BFCLR         CLEAR JCL BUFFERS
         SPACE 3
*  INITIALIZE CURRENT SYSIN AND SYSOUT DS KEYS
         XC    N2SINKEY,N2SINKEY  CLEAR CURRENT SYSIN
         XC    N2SOTKEY,N2SOTKEY               SYSOUT
*  FILL IN JOB HDR FIELDS
         MVC   JHMSGCLS,JCTMCLAS   JOB MESSAGE CLASS
         MVC   JHJOBCLS,JCTJCLAS   JOB CARD CLASS
         MVC   JHJOBTYP,JCTJOBID   1ST CHAR = J,S,T
         MVC   JHTSUID,JCTTSUID    TSO USERID FOR NOTIFY
         MVC   JHCPYCT,JCTCPYCT    JOB COPY COUNT
         MVC   JHLINCT,JCTLINCT    LINES PER PAGE
         TM    JCTJBOPT,JCTPRICD   PRTY CARD PRESENT?
         BZ    *+8
         OI    JHFLGS1,JH1PRICD
         TM    JCTJBOPT,JCTXBACH   X BATCH MONITOR
         BZ    *+8
         OI    JHFLGS1,JH1XBM
         TM    JCTJBOPT,JCTTHOLD   TYPRUN=HOLD
         BZ    *+8
         OI    JHFLGS1,JH1THOLD
         TM    JCTJOBFL,JCTTSCAN   TYPRUN=SCAN
         BZ    *+8
         OI    JHFLGS1,JH1TSCAN
         TM    JCTJOBFL,JCTTCOPY   TYPRUN=COPY
         BZ    *+8
         OI    JHFLGS1,JH1TCOPY    SET COPY IND
*        TM    JCTJBOPT,JCTNOLOG   /*JOBPARM NOLOG SPECIFIED  CBT  SPR2
*        BNO   *+8                                            CBT  SPR2
*        OI    JHFLGS1,JH1NJLOG    SET NOLOG FLAG             CBT  SPR2
         MVC   JHFORMS,JCTFORMS    JOB FORMS
         MVC   JHPNAME,JCTPNAME    PROGRAMMER NAME
         MVC   JHACCTNO,JCTACCTN   ACCTG FIELDS
         MVC   JHROOMN,JCTROOMN    ROOM NUMBER
         MVC   JHESTLIN,JCTESTLN   ESTIMATED PRINT LINES
         MVC   JHESTPUN,JCTESTPU   ESTIMATED PUNCH CARDS
         MVC   JHNETACT,JCTNACCT   NETWORK ACCTG NO.
         SPACE 1
*        FILL IN JOB LOG STATUS FIELDS
         MVC   JHCARDS,JCTCARDS    # CARDS READ
         MVC   JHLINES,JCTLINES    LINES PRINTED
         MVC   JHPUNCH,JCTPUNCH    CARDS PUNCHED
         MVC   JHXEQON,JCTXEQON    XEQ START TIME
         MVC   JHXEQOF,JCTXEQOF    XEQ END TIME
         SPACE 1
         MVC   JHPASS,JCTPASS      RACF PASSWORDS
         MVC   JHNUPASS,JCTNUPAS
         DROP  R5
*  NORMAL RETURN
         B     N2JNEXIT            TAKE NORMAL EXIT
         TITLE 'QPOPEN FUNCTION'
*****************************************************
*  QPOPEN REQUEST PROCESSING                        *
*****************************************************
N2OPEN   DS    0H
         CLI   QPTYPE,QPTJCL       IF JCL OPEN REQUEST
         BE    N2JCLOP                GOTO OPEN JCL DS
         CLI   QPTYPE,QPTSYSIN     IF SYSIN OPN
         BE    N2SINOP               GOTO OPEN SYSIN DS
         CLI   QPTYPE,QPTSYOUT     IF SYSOUT REQUEST
         BE    N2SOTOP              GOTO OPEN SYSOUT DS
         LA    R2,*                PT TO LOC OF INVALID REQ
         B     N2BADEND             AND QUIT
         SPACE 3
N2JCLOP  DS    0H                  OPEN JCL DATA SET REQUEST
         XC    N2CURPDB,N2CURPDB   CLEAR CURRENT PDDB PTR
         MVC   N2DSKEY,=H'1'       SET DSKEY TO JCL KEY
         BAL   R14,N2OPDDB         GO LOCATE PDDB
         LTR   R15,R15             CHK FOR PDDB FOUND
         BZ    N2OERR1             OPEN ERROR IF NO JCL
         USING PDBDSECT,R15
         CLC   PDBDSKEY,N2DSKEY    CHK FOR JCL AS FIRST PDDB
         BNE   N2OERR1
         MVC   SPMTTR,PDBMTTR      ELSE USE MTTR FROM PDDB
         DROP  R15
         BAL   R14,N2OREAD         GO DO 1ST RECORD READ
         B     N2JNEXIT            TAKE NORMAL EXIT
         SPACE 3
*  REQUEST TO OPEN SYSIN DATA SET
*  N2DSKEY HAS DATA SET KEY FROM JCL CTL REC
*  N2SINKEY HAS MTTR FROM SAME CTL REC
N2SINOP  DS    0H
N2SINPDB DS    0H                  FIND NEXT PDDB
         BAL   R14,N2OPDDB         GO SEARCH FOR SYSIN BY KEY
         LTR   R15,R15             R15 IS PDDB PTR OR ZERO
         BZ    N2OERR2             GO IF DS NOT FOUND
         USING PDBDSECT,R15
         CLC   N2DSKEY,PDBDSKEY   CHECK IF THIS IS RIGHT KEY
         BNE   N2SINPDB            NEXT PDDB
         CLC   N2SINKEY,PDBMTTR    MTTRS THE SAME
         BNE   N2OERR2             GO IF NOT
         MVC   SPMTTR,PDBMTTR      USE PDDB MTTR
*  BUILD DATA SET HDR FOR SYSIN
         MVC   DSHLRECL,PDBLRECL   LOG REC LEN
         MVC   DSHRECFM,PDBRECFM
         DROP  R15
         BAL   R14,N2OREAD         GO READ 1ST RECORD
         B     N2JNEXIT            NORMAL EXIT
         TITLE 'QPOPEN SYSOUT DATA SET FUNCTION'
*  PROCESS SYSOUT OPEN REQUEST
*        PROCESS PDDBS  WITH PDB1NSOT NOT = 0.
N2SOTOP  DS    0H
         SR    R5,R5
         ICM   R5,3,N2SOTKEY       CHK IF FIRST DS
         BNZ   N2SOTNXT            GO IF NOT FIRST
         XC    N2CURPDB,N2CURPDB   SET SEARCH TO BEGINNING
         XC    N2DSKEY,N2DSKEY     ACTUAL PDDB KEY
*        NI    N2FLAGS,255-N2HSACC1  RESET HSP DS ACCEPTED FLAG SPR2
         NI    N2FLAGS,255-N2HSACC1-N2R2RMT    AND REMOTE FLAG  SPR2
         SPACE 1
N2SOTNXT DS    0H                  STEP TO NEXT SYSOUT DS
         TM    QPOOPTN,QPOBEGIO    INITIATE I/O ON PREV OPENED DS?
         BO    N2OBEGIO             YES, DONT HAVE TO REBUILD DS HDR
         LA    R5,1(R5)            INCR DS KEY
         STH   R5,N2SOTKEY          AND SAVE IT
* DO UNTIL SYSOUT DS FOUND
N2SOTPDB DS    0H
         BAL   R14,N2OPDDB         GET NEXT PDDB
N2PDHOOK DS    0H                  LABEL FOR TEST
         LTR   R15,R15             PTR TO PDDB OR ZERO
         BZ    N2OERR3             SYSOUT NOT FOUND
         USING PDBDSECT,R15
         TM    PDBFLAG1,PDB1NSOT+PDB1NULL   CHK IF SYSOUT DS
         BNZ   N2SOTPDB            GET NEXT PDDB IF NOT
         SPACE 1
*        SYSOUT DATA SET FOUND
         TM    PDBFLAG1,PDB1MDES   MULTI-DESTINATION DS
         BZ    N2CKPREV            CHECK FOR MATCH ON EARLIER DS
         CLC   N2DSKEY,PDBDSKEY    SEE IF SAME AS PREV PDDB DS
         BNE   N2CKPREV            CHECK FOR MATCH ON EARLIER DS
         B     N2SOTPDB            SKIP PDDB IF SAME DS
         SPACE 2
*  CHECK FOR PREV PDDB FOR SAME DS
N2CKPREV MVC   N2PDBSAV,N2CURPDB   SAVE CURRENT PDDB
         MVC   N2IOTSAV,N2CURIOT    AND IOT PTRS
         MVC   N2KEYSAV,PDBDSKEY    ALSO KEY OF DS BEING CHECKED
         XC    N2CURPDB,N2CURPDB   FORCE RESCAN OF ALL PDDBS
         SPACE 1
N2CKLOOP BAL   R14,N2OPDDB         GET NEXT PDDB
         TM    PDBFLAG1,PDB1NSOT+PDB1NULL   CHK FOR SYSOUT DS
         BNZ   N2CKLOOP            LOOP IF NOT
         CLC   N2CURPDB,N2PDBSAV   ARE WE BACK WHERE WE STARTED?
         LA    R2,0                 ANTICIPATE YES
         BE    N2CKXIT              YES, THEN NO MATCH ON ANY PREV
         CLC   N2KEYSAV,PDBDSKEY   DIFF PDDBS, BUT SAME DS?
         LA    R2,4                 IN CASE YES
         BNE   N2CKLOOP             LOOP IF NOT SAME DS
         SPACE 1
N2CKXIT  MVC   N2CURPDB,N2PDBSAV   RESTORE CURRENT PDDB
         MVC   N2CURIOT,N2IOTSAV    AND IOT PTRS
         B     *+4(R2)             EXIT VIA BR VECTOR
         B     N2SOTEQ             NO MATCH WITH ANY PREV PDDB
         B     N2SOTPDB            MATCHING PDDB, SO SKIP THIS ONE
         SPACE 3
* CORRECT SYSOUT DATA SET FOUND
N2SOTEQ  DS    0H                  NEED TO PROCESS THIS SYSOUT
         L     R15,N2CURPDB        POINT TO PDDB
         MVC   N2DSKEY,PDBDSKEY    SAVE ACTUAL DSKEY
         MVC   SPMTTR,PDBMTTR      SAVE MTTR
* BUILD SYSOUT DATA SET HEADER
*        NI    N2FLAGS,255-N2HSACC1  RESET HSP DS ACCEPTED FLAG SPR2
         NI    N2FLAGS,255-N2HSACC1-N2R2RMT  AND REMOTE FLAG    SPR2
         MVC   DHCLASS,PDBCLASS    SYSOUT CLASS
         MVC   DHRECFM,PDBRECFM    RECFM
         MVC   DHLRECL,PDBLRECL    MAX LRECL
         MVC   DHCOPYS,PDBCOPYS    COPIES OF THIS DATASET
         MVC   DHRECCNT,PDBRECCT   RECORD COUNT
         MVC   DHFORMS,PDBFORMS    FORMS NUMBER
         MVC   DHFCB,PDBFCB        3211 FCB ID
         MVC   DHUCS,PDBUCS        1403 OR 3211 UCS ID
         MVC   DHINDEX,PDBINDEX    3211 FCB INDEX VALUE
         CLC   PDBDSKEY,=AL2(PDBINJNL)  IGNORE FUNC IF SYS DS
         BNH   *+10
         MVC   DHFCTN,PDBFUNC      3525 FUNCTION BYTE
         MVC   DHWTRID,PDBWTRID    OUTPUT WRITER ID OR DSID
         MVC   DHCHAR1,PDBCHAR1    3800 PRINTER XLATE TAB 1
         MVC   DHCHAR2,PDBCHAR2                           2
         MVC   DHCHAR3,PDBCHAR3                           3
         MVC   DHCHAR4,PDBCHAR4                           4
         MVC   DHFLASH,PDBFLASH    3800 FLASH CART ID
         MVC   DHCPYMOD,PDBMODF     3800 COPY MOD IMAGE
         MVC   DHCPYGRP,PDBCOPYG   3800 COPY GROUPS
         MVC   DHFLSHCT,PDBFLSHC   3800 # FLASH COPIES
         MVC   DHMODTRC,PDBMODFT   3800 TBL REF CHAR
*        CLC   PDBDDN(4),=C'ZMOP'  MOPS SPUN DATASET ?          CBTSPR2
*        BNE   ZMOP1               NOPE NO NEED TO MICKEY MOUSE CBTSPR2
*        MVC   DHWTRID,PDBDDN      SET DDNAME AS WTR ID         CBTSPR2
*MOP1    DS    0H                                               CBTSPR2
         TM    PDBFLAG1,PDB1DSID   DSID DS AND NOT WTRID
         BZ    *+8
         OI    DHFLGS1,DH1DSID
         TM    PDBFLAG1,PDB1NULL   NULL PDDB
         BZ    *+8
         OI    DHFLGS1,DH1NULL
         TM    PDBFLAG1,PDB1LOG    JES2 JOB LOG
         BZ    *+8
         OI    DHFLGS1,DH1LOG
         TM    PDBFLAG1,PDB1NSOT   NOT A SYSOUT DS
         BZ    *+8
         OI    DHFLGS1,DH1NSOT
         TM    PDBFLAG1,PDB1SPIN   SPIN DS
         BZ    *+8
         OI    DHFLGS1,DH1SPIN
         TM    PDBFLAG1,PDB1HOLD   DS IS ON HOLD
         BZ    *+8
         OI    DHFLGS1,DH1HOLD
         TM    PDBFLAG2,PDB2OPTJ   3800 OPTCD=J?
         BZ    *+8
         OI    DHFLGS1,DH1OPTJ
         TM    PDBFLAG2,PDB2BRST   3800 BURST=Y?
         BZ    *+8
         OI    DHFLGS1,DH1BRST
         DROP  R15
         SPACE 3
* NEED TO SET ROUTE CODES IN DS HDR
* IF PDB1MDES FLAG IS ON, MULTIPLE DESTINATIONS EXIST FOR DS
*
         LR    R5,R15              CONVERT ROUTE CODE USES R15
         USING PDBDSECT,R5
         LA    R7,4                # OF ROUTE CODES
         LA    R6,DHNODE1          1ST NODE/DEV PAIR
         ST    R5,N2PDBSAV         SAVE CURRENT PDDB PTR
         MVC   N2IOTSAV,N2CURIOT   SAVE CURRENT IOT PTR
N2DESTLP DS    0H
         TM    CTFLGS1,CT1UNDDS    TEST FOR HRDCPY STATUS PROCESSING
         BZ    N2ENDHSP             AND BR IF NOT REQUESTED
         SPACE 1
         L     R9,N2CURJQE         PT TO JOB'S JQE
         USING JQEDSECT,R9         ESTABLISH JQE ADDRESSABILITY
         TM    JQETYPE,$OUTPUT     JOB ON OUTPUT (NOT HRDCPY) QUEUE?
         BNZ   N2ENDHSP             YES, GO BEC NOTHING PRINTED YET
         SPACE 1
*  DETERMINE WHETHER DATA SET IS PART OF DEMAND SETUP GROUP
         TM    N2FLAGS,N2DMDSET    TEST FOR DEMAND SETUP FOR JOB
         BZ    N2HSJOTP             IF NONE, GO LOOK IN JOT
         CLC   PDBCLASS,JHMSGCLS    YES, THEN IS THIS DS PART OF GRP?
         BNE   N2HSJOTP              NO, NOT UNLESS DS CLASS=MSGCLASS
         CLC   PDBDEST,=F'0'       DS MUST ALSO HAVE MSGCLS ROUTING
         BNE   N2HSJOTP             BR IF WRONG ROUTING
         SPACE 1
*  DS IS PART OF DEMAND SETUP GROUP - NOW DETERMINE IF ALREADY PRTD
         ICM   R14,15,N2CKPJOE     TEST WHETHER GROUP INTRPTD ON PRTR
         BZ    N2HSACPT             NO CHKPT JOE, NO INTRPT, SO BR
         USING JOEDSECT,R14        ESTABLISH JOE ADDRESSABILITY
         LR    R15,R5              COPY PDDB PTR
         S     R15,N2CURIOT        GET PDDB DISPL IN IOT
         CH    R15,JOEPDDB         DET IF PDDB ACTUALLY ON PRTR
         BNL   N2HSACPT            ACCEPT IF NOW ON OR NOT YET PRTD
         B     N2HSNULL            REJECT IF ALREADY PRINTED
         SPACE 1
N2HSJOTP DS    0H
         L     R9,N2$JOT           GET PTR TO JOT
         USING JOTDSECT,R9         ESTABLISH JOT ADDRESSABILITY
         SPACE 1
*  FIND CLASS QUEUE IN JOT FOR THIS DS, THEN LOOK FOR WORK JOE
         SR    R15,R15             CLEAR WORK REG
         IC    R15,DHCLASS         GET CLASS OF DS
         SL    R15,=A(C'A')        CLASS A QUEUE OFFSET IS 0
         IC    R15,N2CNVCLS(R15)   GET CLASS QUEUE OFFSET
         SLL   R15,1               MULT BY 2 FOR 2-4 BYTE HDRS    SPR2
         LA    R15,JOTCLSQ(R15)    LOCATE CLASS QUEUE IN JOT
         SLR   R14,R14             CLEAR REG
         ICM   R14,15,0(R15)       GET OFFSET   TO Q OF WORK JOES  SPR2
         BZ    N2SP2RMT             BR IF NO QUEUE; DS MAY BE RMT  SPR2
*        SLL   R14,2               CALC ACTUAL JOE OFFSET W/IN JOT SPR2
         AR    R14,R9              PT TO 1ST WORK JOE
         ST    R14,N2WRKJOE        SAVE ADDR OF WORK JOE
*  NOW HAVE PTR TO 1ST WORK JOE ON 'DHCLASS' CLASS QUEUE
N2HSSTR2 DS    0H                  ENTRY LABEL FOR REMOTE SEARCH   SPR2
         SLR   R2,R2               CLEAR REG
         IC    R2,JHCPYCT          GET NO. JOB COPIES (= ORIGINAL
*                                   NO. WORK JOES FOR THIS DS GROUP)
         B     N2HSCKJQ            GO ANALYZE JOE
         SPACE 2
*  MAIN LOOP FOR FINDING ANY & ALL WORK AND CHAR JOES FOR THIS DS
N2HSLOOP DS    0H
         L     R14,N2WRKJOE        GET CURRENT WORK JOE PTR
         SLR   R15,R15             CLEAR REG
         ICM   R15,7,JOENEXT+1     GET OFFSET   TO NEXT WORK JOE   SPR2
         BZ    N2SP2RMT             BR IF NO MORE; GO LOOK IN HQRS
*        SLL   R15,2               CALC ACTUAL OFFSET              SPR2
         LA    R14,0(R15,R9)       PT TO NEXT WORK JOE
         ST    R14,N2WRKJOE        SAVE NEW WORK JOE PTR
         SPACE 1
N2HSCKJQ DS    0H     DETERMINE IF THIS JOE BELONGS TO CURRENT JOB
         L     R15,N2CURJQE        GET PTR TO CURRENT JQE
*    THIS RECORD DELETED BY FIX FOR JES2 APAR OZ20010              *CKP
         S     R15,N2$JOBQ         CONVERT TO OFFSET               *CKP
         LA    R15,JQELNGTH(R15)   ALLOW FOR DUMMY JQE AT START
*        SRL   R15,2               MAKE IT OFFSET/4                SPR2
*        CH    R15,JOEJQE          COMPARE W/ JQE PTR IN JOE       SPR2
         CLM   R15,7,JOEJQEB       COMPARE W/ JQE PTR IN JOE       SPR2
         BNE   N2HSLOOP            WRONG JOE IF NOT EQ, SO CONT SCAN
*  FALL THRU TO HERE IFF JOE BELONGS TO CURRENT JOB
         SPACE 1
*  LOCATE CHARACTERISTICS JOE
         L     R15,JOECHAR         GET OFFSET   TO CHAR JOE        SPR2
*        N     R15,=F'65535'       CLEAR LEFT HALFWORD             SPR2
         LA    R15,0(R15)          CLEAR HIGH ORDER BYTE           SPR2
*        SLL   R15,2               CALC ACTUAL OFFSET              SPR2
         AR    R15,R9              PT TO CHAR JOE
         ST    R15,N2CHRJOE        SAVE PTR TO CHAR JOE
         SPACE 1
*  MATCH JOE CHARACTERISTICS AGAINST PDDB
         CLC   PDBCLASS,JOEPDBCL   TEST SYSOUT CLASS
         BNE   N2HSLOOP            IF ANY MISMATCH, THEN REJECT JOE
         CLC   JOEDEST,PDBDEST     DATA SET
         BNE   N2HSLOOP             ROUTING
         LR    R14,R15             SWITCH ADDRESSABILITY TO CHAR JOE
         CLC   JOEFORM(12),PDBFORMS  CHECK FORMS, FCB,
         BNE   N2HSLOOP                AND UCS
         CLC   JOEFLASH,PDBFLASH   3800 FORMS
         BNE   N2HSLOOP             OVERLAY
         TM    PDBFLAG2,PDB2BRST   VERIFY
         BZ    *+16                 THAT
         TM    JOECFLAG,$JOEBRST     PDDB
         BZ    N2HSLOOP               BURSTER
         B     *+12                    SPECIFICATION
         TM    JOECFLAG,$JOEBRST        MATCHES
         BO    N2HSLOOP                  CHAR JOE
         CLC   JOEWTRID,PDBWTRID   WRITER
         BNE   N2HSLOOP             ID
*  NOW KNOW THESE JOES BELONG TO THIS DS
         SPACE 1
*  DETERMINE WHETHER CHKPT JOE EXISTS
         L     R14,N2WRKJOE        GET WORK JOE PTR
         TM    N2FLAGS,N2DMDSET    ALREADY FOUND DEMAND SETUP GROUP?
         BO    N2HSGCKP             IF SO, WE DONT NEED CHKPT JOE
         TM    JOEFLAG2,$JOEDMND   IS THIS DS PART OF DMD SETUP GRP?
         BZ    N2HSGCKP             NO, THEN GO FIND CHKPT JOE
         OI    N2FLAGS,N2DMDSET    INDICATE JOB HAS DEMAND SETUP GRP
         SPACE 1
N2HSGCKP DS    0H
         SR    R15,R15             CLEAR REG
         ICM   R15,7,JOECKPT+1     GET CHKPT JOE OFFSET            SPR2
         BZ    N2HSACPT             NONE, THEN ACCEPT THIS DEST OF
*                                    THIS DS
*        SLL   R15,2               ACTUAL OFFSET                   SPR2
         AR    R15,R9              ACTUAL PTR
         TM    N2FLAGS,N2DMDSET    TEST FOR DMD SETUP GROUP IN JOB
         BZ    N2HSPCKJ             NONE, GO ANALYZE CHKPT JOE
         CLC   PDBCLASS,JHMSGCLS   IS THIS DS PART OF DMD SET GRP?
         BNE   N2HSPCKJ             NOT UNLESS CLASS=MSGCLASS
         CLC   PDBDEST,=F'0'       ROUTING MUST ALSO BE MSG CLS DEST
         BNE   N2HSPCKJ             BR IF DEST WRONG
         ST    R15,N2CKPJOE        SAVE PTR TO CHKPT JOE
         SPACE 1
*  HAVE CHKPT JOE - DETERMINE WHETHER THIS PDDB ALREADY PROCESSED
N2HSPCKJ DS    0H
         LR    R14,R15             MAKE CHKPT JOE ADDRESSABLE
         L     R15,N2CURPDB        GET CURRENT PDDB PTR
         S     R15,N2CURIOT        CONVERT TO OFFSET IN IOT
         CH    R15,JOEPDDB         DETERMINE POSITION OF CURRENT